%chk=./calculation/no_transfer_pubchem_sampling_3_b3lyp/101142445.chk
%nprocshared=7
%mem=6GB
#p b3lyp/6-31g(d) opt SCF=XQC 

Gaussian input prepared by ASE

0 1
O                -2.2588778845       -0.2820334397        2.9062742050
S                -1.6290940999        0.5602921956        1.9262714072
O                -1.4015876724        1.9412313399        2.2729437267
C                -0.0292234748       -0.1497741700        1.4921015877
C                 1.0401980918        0.6214971452        1.5415336318
C                 2.4142398684        0.1247391387        1.1943876166
C                 2.7422108248        0.5686667606       -0.2000603495
C                 3.9044434029        1.0221701149       -0.7500048203
C                 3.6259300573        1.2808918142       -2.1151349625
C                 2.3160673146        0.9689999040       -2.2927494722
O                 1.7708926456        0.5357175972       -1.1413507170
C                 2.4615056965       -1.4060459005        1.3397706224
C                 1.3075480771       -2.0560680415        0.5862203748
C                -0.0534962403       -1.6065848871        1.1382978713
O                -1.0965401273       -1.8941404001        0.2321547765
C                -2.5785104126        0.5278023359        0.4025298743
C                -2.0577573832        1.1755966771       -0.7014192400
C                -2.7736030609        1.1649595430       -1.8870585829
C                -3.9947855748        0.5107426438       -1.9494823720
C                -4.5048796690       -0.1334443118       -0.8334755349
C                -3.7915173480       -0.1271061904        0.3542159434
H                 0.9236527749        1.6615317750        1.8102067445
H                 3.1527017872        0.5759658407        1.8637904589
H                 4.8405175637        1.1558151313       -0.2481042389
H                 4.3085194124        1.6487625143       -2.8529274315
H                 1.6771123716        1.0084857244       -3.1523901874
H                 3.4127520337       -1.7819182072        0.9590573103
H                 2.3915104072       -1.6551575856        2.3997635974
H                 1.3799316933       -3.1428696544        0.6404837325
H                 1.3588976345       -1.7701635190       -0.4675369446
H                -0.3161153990       -2.1692854302        2.0426917369
H                -0.8955034026       -1.4718260659       -0.6124028307
H                -1.1075275801        1.6812448116       -0.6186302299
H                -2.3830824237        1.6677431143       -2.7593683248
H                -4.5520805553        0.5053103908       -2.8746139578
H                -5.4565966126       -0.6396286757       -0.8890592856
H                -4.1478547364       -0.6221180332        1.2430722643



