%chk=calculation/no_transfer_pubchem_sampling_3_b3lyp/114734795_rwf.chk
%rwf=calculation/no_transfer_pubchem_sampling_3_b3lyp/114734795_rwf.rwf
%nprocshared=14
%mem=3GB
#p b3lyp/6-31g(d) 6D 10F nosymm GFInput td=(50-50,nstate=2) SCF=XQC 

Gaussian input prepared by ASE

0 1
C                 1.2073260637       -2.6799771269       -0.1286247129
C                 1.9947604942       -1.3957069833       -0.0497948801
C                 3.3955346710       -1.4375259673       -0.0502526645
N                 4.1977055646       -0.3794081963        0.0180824535
C                 3.5654300541        0.8096432784        0.0958872301
N                 4.3586244799        1.9199398702        0.2235763435
N                 2.2423573899        1.0007799374        0.0906673304
C                 1.4580977942       -0.0917066170        0.0204451964
C                 0.0302516334        0.2260998467        0.0240347180
C                -0.5931613839        1.4408602764        0.1043308862
C                -2.0026748323        1.1839288972        0.0660624900
C                -3.1667629918        1.9707289129        0.1077736415
C                -4.3779532905        1.3041015159        0.0422370079
F                -5.5208941573        2.0258891475        0.0793193739
C                -4.4907979040       -0.0912481275       -0.0615522343
C                -3.3442158739       -0.8808041037       -0.1035260034
C                -2.1250066588       -0.2166432325       -0.0381292775
O                -0.8891884815       -0.8006384091       -0.0637138528
H                 0.5511229247       -2.8151857566        0.7373425116
H                 1.8945900963       -3.5319062489       -0.1678770712
H                 0.5687537807       -2.7195749543       -1.0170999636
H                 3.8945219352       -2.4053098073       -0.1136599240
H                 5.3287560711        1.8063383593       -0.0316283770
H                 3.9273696454        2.8091640169        0.0183707371
H                -0.0857942827        2.3900963135        0.1824047585
H                -3.1401089148        3.0520241580        0.1876123475
H                -5.4803715453       -0.5327503402       -0.1074384368
H                -3.3982722815       -1.9612096596       -0.1832376280



