%chk=calculation/no_transfer_pubchem_sampling_3_b3lyp/115944108_rwf.chk
%rwf=calculation/no_transfer_pubchem_sampling_3_b3lyp/115944108_rwf.rwf
%nprocshared=14
%mem=3GB
#p b3lyp/6-31g(d) 6D 10F nosymm GFInput td=(50-50,nstate=2) SCF=XQC 

Gaussian input prepared by ASE

0 1
C                 6.2362706850        0.9973495882        0.2236143408
C                 4.9150805055        0.3041464416       -0.0167411732
C                 4.6959013057       -0.4572733867       -1.1711816391
C                 3.4865065172       -1.1195465606       -1.3766846214
C                 2.4496510791       -1.0406322132       -0.4390492855
C                 1.1367785187       -1.7542493828       -0.6794305628
C                 0.1037268810       -0.9454759245       -1.5198907929
C                -0.5039813414        0.2492608769       -0.8376103326
N                 0.1025187901        1.4141820015       -0.8955072811
N                -0.6611529836        2.3211404491       -0.2155219747
C                -1.7266881894        1.6998826520        0.2401690524
C                -2.7751024878        2.5153886470        0.9426920396
N                -3.9671932702        2.7043220299        0.0929462709
N                -1.6877931739        0.3526142043       -0.1071880276
C                -2.7464338144       -0.7091209989        0.0555280041
C                -3.4866837812       -0.8591158655       -1.2875057117
C                -2.1100469191       -2.0401646707        0.5031343678
C                -3.7680266348       -0.3263345819        1.1399413147
C                 2.6681472283       -0.2786557999        0.7144729012
C                 3.8776366983        0.3822436354        0.9206488598
H                 6.9131519550        0.3745151678        0.8244201807
H                 6.7494496417        1.2188916518       -0.7182603626
H                 6.1008145753        1.9408661130        0.7636473301
H                 5.4831240940       -0.5354154017       -1.9182637625
H                 3.3466904858       -1.7071998417       -2.2824027326
H                 0.6913403092       -2.0380620405        0.2796884424
H                 1.3309563987       -2.6885755832       -1.2220120448
H                -0.6664771856       -1.6245440920       -1.8951130913
H                 0.6222863186       -0.5463534993       -2.3971249023
H                -2.2598032137        3.4530885649        1.1919446304
H                -3.0956729387        2.0613352910        1.8834500004
H                -4.6278715957        3.3125445533        0.5763865345
H                -3.6847697679        3.2045527385       -0.7497632364
H                -2.8090805842       -1.1419309364       -2.0987662168
H                -3.9710487144        0.0857606674       -1.5518506713
H                -4.2583505479       -1.6329244431       -1.2058312434
H                -2.9108015885       -2.7481208651        0.7400876745
H                -1.4858377122       -2.5052455351       -0.2588328538
H                -1.5098150390       -1.8972036610        1.4078237245
H                -4.4689160394       -1.1603850271        1.2482367327
H                -3.2853444476       -0.1751754707        2.1114300383
H                -4.3387279018        0.5600498044        0.8595001490
H                 1.8794315589       -0.1933286326        1.4581281583
H                 4.0161553268        0.9729013356        1.8237727730



