%chk=calculation/no_transfer_pubchem_sampling_3_b3lyp/117770360_rwf.chk
%rwf=calculation/no_transfer_pubchem_sampling_3_b3lyp/117770360_rwf.rwf
%nprocshared=14
%mem=3GB
#p b3lyp/6-31g(d) 6D 10F nosymm GFInput td=(50-50,nstate=2) SCF=XQC 

Gaussian input prepared by ASE

0 1
C                 7.9782670780        0.2336873882       -0.0939622070
O                 6.6908695861        0.7703519996        0.1720731442
C                 5.6039008253       -0.0311211400       -0.0223059185
C                 5.6576063881       -1.3580517224       -0.4623496925
C                 4.4637359704       -2.0698405441       -0.6270917529
C                 3.2328764772       -1.4874069286       -0.3592153723
C                 3.1770418365       -0.1534768510        0.0866078136
C                 1.8694740152        0.4450954946        0.3684270461
N                 0.7040990312       -0.1120015420        0.0958545843
C                -0.2387558268        0.7926900552        0.5313462203
C                -1.6534571774        0.7177486019        0.4891597804
N                -2.2054979147       -0.4160699674       -0.0671077438
C                -3.5333642097       -0.8025578921       -0.2645144971
C                -3.7554253760       -2.0467500719       -0.8850498055
C                -5.0469744007       -2.5072131642       -1.1125929226
C                -6.1497709678       -1.7430134347       -0.7311127715
C                -5.9283248680       -0.5090839453       -0.1163166591
C                -7.1044988443        0.3590700188        0.2438498354
F                -6.8457242668        1.1611430288        1.2997716678
F                -7.4623161877        1.1684773823       -0.7828393876
F                -8.1978186539       -0.3763433174        0.5551513309
C                -4.6399585328       -0.0289740009        0.1225274329
N                -2.3977607871        1.7118703922        0.9728113841
C                -1.7817412846        2.7932925405        1.5029235474
C                -0.4102126223        2.9840040967        1.5980795733
C                 0.3621685236        1.9315973045        1.0856316940
N                 1.7129136224        1.6884653888        0.9666452354
C                 4.3654710375        0.5651606027        0.2477909646
H                 8.1976667646       -0.6267507439        0.5516049442
H                 8.6860718501        1.0358781567        0.1216571991
H                 8.0800253462       -0.0673184746       -1.1447820110
H                 6.6047696038       -1.8384739561       -0.6778422054
H                 4.5072927358       -3.1000859759       -0.9696525979
H                 2.3082865623       -2.0387019669       -0.4837949993
H                -1.5046799481       -1.0723523575       -0.3903719581
H                -2.9036053122       -2.6532088222       -1.1861492974
H                -5.1936183106       -3.4724488361       -1.5890327954
H                -7.1597612814       -2.0995082683       -0.8995499054
H                -4.4784137287        0.9235121661        0.6061306466
H                -2.4546427314        3.5617536666        1.8772496395
H                 0.0111336642        3.8819303257        2.0366002594
H                 2.4550551762        2.2816941894        1.3054864811
H                 4.3775951380        1.6033281247        0.5658470763



