%chk=./calculation/no_transfer_pubchem_sampling_3_b3lyp/117770360.chk
%nprocshared=7
%mem=6GB
#p b3lyp/6-31g(d) opt SCF=XQC 

Gaussian input prepared by ASE

0 1
C                 7.9510014574        0.1970929103        0.1159735643
O                 6.6693948695        0.7228455654        0.3658079229
C                 5.5818490729       -0.0296872016        0.0431327922
C                 5.6275590903       -1.2991160591       -0.5231122119
C                 4.4440084240       -1.9648583924       -0.8062779626
C                 3.2219898806       -1.3892937360       -0.5355266241
C                 3.1644583493       -0.1138939127        0.0338160540
C                 1.8663738021        0.4683622238        0.3085427849
N                 0.7252995345       -0.1212595192        0.0485076636
C                -0.2444176875        0.7499208111        0.4525200220
C                -1.6493332508        0.6493156164        0.4170875529
N                -2.1909329944       -0.4949307913       -0.1005906316
C                -3.5059813916       -0.8674336266       -0.2580592878
C                -3.7799007678       -2.1139359639       -0.8315696134
C                -5.0804825866       -2.5359408367       -1.0140512315
C                -6.1425628200       -1.7322977824       -0.6320967508
C                -5.8694514519       -0.4978222690       -0.0587240919
C                -6.9944545298        0.4122267103        0.3427128605
F                -6.7742812795        1.0311322211        1.5144896812
F                -7.2015096039        1.3936809010       -0.5603925346
F                -8.1712288805       -0.2229657936        0.4700296188
C                -4.5704212845       -0.0537057717        0.1300722292
N                -2.3923989580        1.6431859399        0.8749060596
C                -1.8129329398        2.7370610223        1.3693884342
C                -0.4536693249        2.9534840272        1.4582081537
C                 0.3422562518        1.9167541236        0.9797803488
N                 1.6869839456        1.7099411677        0.8754313785
C                 4.3478521492        0.5562982036        0.3186441943
H                 8.1251242196       -0.7234289887        0.6821000915
H                 8.6516321119        0.9614029384        0.4481042381
H                 8.1053332420        0.0040913757       -0.9503752730
H                 6.5684930832       -1.7758033190       -0.7464556433
H                 4.4886976644       -2.9500722342       -1.2460099738
H                 2.2987680217       -1.9000670074       -0.7525655556
H                -1.4905670217       -1.1567626002       -0.4102853370
H                -2.9591298173       -2.7488802365       -1.1334899587
H                -5.2736893028       -3.5000805766       -1.4588706142
H                -7.1608309701       -2.0576218509       -0.7717625435
H                -4.3645509168        0.9060753269        0.5748273691
H                -2.5110399239        3.4863480343        1.7161925868
H                -0.0441268619        3.8615789760        1.8692017636
H                 2.4102541061        2.3469017087        1.1614147279
H                 4.3605632896        1.5421556665        0.7569167469



