%chk=./calculation/no_transfer_pubchem_sampling_3_b3lyp/117913170.chk
%nprocshared=7
%mem=6GB
#p b3lyp/6-31g(d) opt SCF=XQC 

Gaussian input prepared by ASE

0 1
C                 9.5898940891       -1.5169999215       -0.8075139632
C                 8.2949973201       -1.2933361084       -0.6324451343
C                 7.7932369063        0.0470696365       -0.2771312647
O                 8.4630576333        1.0366680430       -0.1166202222
O                 6.4483002371        0.0219805440       -0.1519123893
C                 5.8091647814        1.1896455041        0.1770128653
C                 4.4893818665        1.2533131703        0.3363479921
O                 3.6903831070        0.1595058722        0.2455440202
C                 2.3461178752        0.3121611882        0.0639794209
C                 1.7738119445        1.4481362426       -0.5420801650
C                 0.4210065201        1.5239823804       -0.7185947045
C                -0.4224628121        0.4723146155       -0.3087507940
C                -1.8230702361        0.5259693927       -0.4745387121
F                -2.3382179791        1.6607933336       -1.0130592664
C                -2.6442576832       -0.5111189647       -0.0917364433
O                -4.0021033335       -0.5459310086       -0.1867951082
C                -4.6481732347        0.1761368353       -1.1446847088
C                -5.9447187086        0.4595385850       -1.0561996993
O                -6.6924118753        0.0965132199        0.0342498220
C                -8.0088992864        0.3904093214        0.0285939501
O                -8.5650116636        0.9475636248       -0.8859890423
C                -8.6829464880       -0.0495221260        1.2657990596
C                -8.0671643725       -0.6588876462        2.2691816512
C                -2.0497771447       -1.6444164933        0.5112771728
C                -0.7036071791       -1.7289816016        0.6954541786
C                 0.1513045113       -0.6815195094        0.2859733812
C                 1.5427695307       -0.7342333963        0.4605437559
H                10.2985750477       -0.7129980866       -0.6913534381
H                 9.9769041131       -2.4872890077       -1.0665143118
H                 7.5422307323       -2.0600205103       -0.7356071727
H                 6.4451716235        2.0532731137        0.3081028603
H                 4.0283435251        2.1958936576        0.5994958855
H                 2.4067600681        2.2489376366       -0.8929041028
H                -0.0167125461        2.3926297606       -1.1864128004
H                -4.0906749457        0.4784182753       -2.0187196306
H                -6.4725613029        0.9802993147       -1.8417257431
H                -9.7405340322        0.1712899927        1.2855801227
H                -7.0118184352       -0.8709221394        2.2324972030
H                -8.5981538964       -0.9632754062        3.1553777065
H                -2.7130367081       -2.4375330421        0.8179774871
H                -0.2713354359       -2.6033486367        1.1568880200
H                 1.9962398671       -1.6028746561        0.9114142621



