%chk=calculation/no_transfer_pubchem_sampling_3_b3lyp/122503827_rwf.chk
%rwf=calculation/no_transfer_pubchem_sampling_3_b3lyp/122503827_rwf.rwf
%nprocshared=14
%mem=3GB
#p b3lyp/6-31g(d) 6D 10F nosymm GFInput td=(50-50,nstate=2) SCF=XQC 

Gaussian input prepared by ASE

0 1
C                 9.4175413386       -0.5129486780       -4.5020615630
C                 9.9869111071        0.4757852230       -3.4803763875
C                 9.3687292044        0.3403593179       -2.0942983133
O                 7.9807356071        0.6504861435       -2.1978389483
C                 7.2045521682        0.5754570863       -1.0757524850
C                 5.8465958419        0.8825360721       -1.2496857583
C                 4.9741279458        0.8357516577       -0.1706180621
C                 5.4150735989        0.4873800985        1.1192540934
C                 4.4684750353        0.4289793589        2.3073877019
C                 3.4284432420       -0.7136034324        2.1666812237
C                 2.3122290581       -0.5633621394        3.2083713475
C                 1.4526246166        0.7066783370        2.9689855893
C                 0.1344803853        0.4926896602        2.2546772783
C                -0.3084402408       -0.6175450468        1.6573035022
C                -1.6189655323       -0.7969396468        0.9246065574
C                -2.4898327453        0.4653064752        0.8292831252
C                -3.7945986002        0.2095620943        0.0602226981
C                -4.5983892872       -0.9451489247        0.6869751182
C                -5.8876910398       -1.2139185880       -0.0758406522
F                -6.5720182576       -2.2630684525        0.4797037867
F                -5.6284103276       -1.5878018720       -1.3690162876
O                -6.6845786103       -0.0817449563       -0.0636288888
C                -7.9138227874       -0.0424505190       -0.6853906494
C                -8.5693160411        1.1873399990       -0.5730123764
C                -9.8116502317        1.3290103340       -1.1621897571
F               -10.4368350590        2.5115306661       -1.0517900621
C               -10.4520248985        0.3019811494       -1.8689918337
C               -11.8078305713        0.5632982510       -2.4732448434
F               -12.7017745652        0.9135977992       -1.5217500501
F               -11.7540654431        1.5833920132       -3.3585413002
F               -12.3073727276       -0.5029739407       -3.1197568827
C                -9.7525218390       -0.9050905625       -1.9502991343
F               -10.2837839888       -1.9468020419       -2.6062463979
C                -8.5004521489       -1.1025885846       -1.3762761678
C                -3.7413210438       -2.2212317883        0.7877249916
C                -2.4359826534       -1.9520421416        1.5489635153
C                 2.2720180419        1.7874278358        2.2029079681
C                 3.7515734500        1.7877016099        2.6107543900
C                 6.7707803658        0.1866730925        1.2693835322
C                 7.6672998286        0.2248513610        0.1958456853
H                 8.3384098416       -0.3746203348       -4.6170781445
H                 9.5921475228       -1.5496373752       -4.1882426587
H                 9.8860749427       -0.3771825731       -5.4829036008
H                11.0705923266        0.3313250762       -3.3763923073
H                 9.8377842530        1.5056649265       -3.8282730367
H                 9.8521502350        1.0278388004       -1.3848523358
H                 9.4948652560       -0.6843036543       -1.7124669079
H                 5.5001614706        1.1539196459       -2.2424091886
H                 3.9272209976        1.0765852593       -0.3379847317
H                 5.0820653876        0.1874606957        3.1853514389
H                 2.9975528489       -0.7065148212        1.1571988429
H                 3.9359922801       -1.6797025843        2.2748076742
H                 2.7740277685       -0.4961769236        4.2026091792
H                 1.6806969897       -1.4574252907        3.2371473277
H                 1.2096622014        1.1340487553        3.9540355832
H                -0.4821958750        1.3916948881        2.2098588298
H                 0.3050378630       -1.5190084032        1.6850630770
H                -1.3747097771       -1.1062866954       -0.1069774869
H                -1.9324944973        1.2733493389        0.3402415860
H                -2.7291872460        0.8182569999        1.8428774607
H                -3.5654963497       -0.0452003895       -0.9830195661
H                -4.4023882353        1.1202676301        0.0382920171
H                -4.9129445265       -0.6501971461        1.6974687263
H                -8.1165707215        2.0121619296       -0.0369511849
H                -8.0261331698       -2.0664036856       -1.4838454547
H                -3.5116112326       -2.5749010741       -0.2261971076
H                -4.3103955690       -3.0166166351        1.2804639407
H                -2.6609781865       -1.6996313149        2.5952323390
H                -1.8315549128       -2.8675991675        1.5739173080
H                 1.8302740568        2.7767613098        2.3765031934
H                 2.1862837664        1.6032756263        1.1244853202
H                 3.8165234896        1.9954072988        3.6873288693
H                 4.2790966254        2.6067046622        2.1095217682
H                 7.1489242994       -0.0858200406        2.2527099550
H                 8.7106026805       -0.0160100538        0.3653069724



