%chk=calculation/no_transfer_pubchem_sampling_3_b3lyp/126599885_rwf.chk
%rwf=calculation/no_transfer_pubchem_sampling_3_b3lyp/126599885_rwf.rwf
%nprocshared=14
%mem=3GB
#p b3lyp/6-31g(d) 6D 10F nosymm GFInput td=(50-50,nstate=2) SCF=XQC 

Gaussian input prepared by ASE

0 1
C                -2.2174219398        1.2808211561       -2.0943328809
O                -3.4791700466        1.3301364907       -1.4106529480
C                -3.5524666556        0.7011977852       -0.2195857370
N                -2.4810048742        0.1005408739        0.2603966943
C                -2.5476869111       -0.5226473239        1.4504528444
C                -1.2932564505       -1.1811342989        1.9295886764
N                -0.1486909007       -0.6938513530        1.6401528044
C                 1.0507039500       -1.3785519417        2.1604379575
C                 1.7597110554       -2.1210513073        1.0537780866
C                 1.5740696599       -3.4272726152        0.6694826862
N                 2.4049812072       -3.7461743937       -0.3890276806
C                 2.4979077481       -5.0340014170       -1.0430826466
C                 3.1458909561       -2.6249577333       -0.7131583125
C                 4.1188453179       -2.4356280285       -1.6984794097
C                 4.7009579367       -1.1762827275       -1.7934283690
C                 4.3413257771       -0.1091129766       -0.9375272760
C                 5.0059229352        1.2478655440       -1.1107081254
C                 4.0157130845        2.3677415760       -1.4929309413
C                 4.7906760972        3.6597752189       -1.8389649189
O                 6.0809691017        3.7101191429       -1.2340088078
C                 6.0555431410        3.2257957468        0.1018010228
C                 5.8071498228        1.7010166129        0.1382284646
C                 3.3687761220       -0.3210778362        0.0409306582
C                 2.7608193117       -1.5792429652        0.1694518416
C                 0.7019283252       -2.2610969317        3.3646492781
O                -0.4045157477       -3.1039822098        3.0287169018
N                -1.5411258894       -2.2651626397        2.8040582930
C                -3.7221018371       -0.5511950460        2.2024494483
C                -4.8562420501        0.0850996391        1.6902157835
C                -4.8045462702        0.7214328852        0.4555103326
N                -5.9526674885        1.3280977630       -0.0993978256
C                -6.0404306177        2.5078051121       -0.8100015536
N                -7.2785735409        2.8266325275       -1.0918647021
C                -8.0614906656        1.8179784423       -0.5521413772
C                -9.5507109674        1.8262320362       -0.6955918564
C                -7.2662488563        0.8926371072        0.0696744930
H                -1.9374955503        0.2478004536       -2.3172372805
H                -1.4283564172        1.7339803587       -1.4889405534
H                -2.3746074280        1.8447649977       -3.0146575286
H                 1.7237697271       -0.5832494980        2.5104982403
H                 0.8988780088       -4.1692299636        1.0725491759
H                 2.2669141483       -4.9494160119       -2.1117926632
H                 3.5026172650       -5.4611523290       -0.9362577302
H                 1.7793060542       -5.7176870686       -0.5858911444
H                 4.4148208747       -3.2370561573       -2.3698770221
H                 5.4600550831       -1.0032447555       -2.5527158985
H                 5.7207043480        1.1615727103       -1.9385621928
H                 3.3978483803        2.0630547382       -2.3452054362
H                 3.3258071521        2.5428652754       -0.6573604854
H                 4.9785876616        3.7225512342       -2.9160975452
H                 4.2057399424        4.5484112431       -1.5472412063
H                 5.2823047481        3.7598680162        0.6798345288
H                 7.0249269326        3.4843384821        0.5381913400
H                 6.7559634065        1.1532120989        0.1736856294
H                 5.2602308815        1.4429401579        1.0536271730
H                 3.0690360232        0.4909654484        0.6993083917
H                 1.5109663693       -2.9458328823        3.6287442173
H                 0.4381782654       -1.6480406911        4.2373689562
H                -2.2569004331       -2.9012331060        2.4622114026
H                -3.7446656888       -1.0211194064        3.1791221710
H                -5.7788389540        0.1063591828        2.2613712050
H                -5.1604191691        3.0709180634       -1.0786118825
H                -9.9813801096        2.7331559048       -0.2547097925
H               -10.0016371206        0.9584940364       -0.2035286994
H                -9.8438744576        1.8122265326       -1.7520544394
H                -7.4920197844       -0.0387199803        0.5660161704



