%chk=./calculation/no_transfer_pubchem_sampling_3_b3lyp/126599885.chk
%nprocshared=7
%mem=6GB
#p b3lyp/6-31g(d) opt SCF=XQC 

Gaussian input prepared by ASE

0 1
C                -1.1072038777        1.5990856061       -1.4385057469
O                -2.4702911699        1.6386022515       -1.0503881300
C                -2.8080167807        0.8347780292       -0.0322043173
N                -1.8733115972        0.0864363478        0.5080255164
C                -2.1652975905       -0.7266452078        1.5194186027
C                -1.0361946025       -1.5092628319        2.0557994007
N                 0.1311491330       -1.0116663018        2.0329975236
C                 1.2305126644       -1.8111239570        2.5311283044
C                 1.9026558254       -2.4744712717        1.3640934259
C                 1.9374357115       -3.8003397870        1.0407452066
N                 2.6361658889       -3.9936637846       -0.1194267691
C                 2.8957034009       -5.2567130724       -0.7464439546
C                 3.0574172407       -2.7762148566       -0.5760500879
C                 3.7918157251       -2.4327595521       -1.7041291387
C                 4.0554529817       -1.0965982256       -1.9123349732
C                 3.6065565927       -0.0980796382       -1.0356675969
C                 3.9261259148        1.3445125822       -1.3342350181
C                 2.6641561958        2.2070483200       -1.4476465869
C                 3.0625374421        3.6068140589       -1.9420867918
O                 4.4045175651        3.9296126320       -1.6422701563
C                 4.7794417790        3.4993178250       -0.3545343523
C                 4.8372240040        1.9627748063       -0.2601338912
C                 2.8799023642       -0.4445345712        0.0868020925
C                 2.6049462602       -1.7871827654        0.3287774879
C                 0.7337728920       -2.8224966751        3.5732588702
O                -0.3449804521       -3.5718697894        3.0515894119
N                -1.3966032441       -2.6932457191        2.6728762878
C                -3.4506373343       -0.8177263807        2.0369232242
C                -4.4471177146       -0.0364478655        1.4699017649
C                -4.1539763887        0.8104944380        0.4109041027
N                -5.1437090959        1.5912244982       -0.1826535622
C                -5.0233065105        2.8315214965       -0.7372296074
N                -6.1604417728        3.2920925704       -1.1592030699
C                -7.0908726010        2.3244857474       -0.8935372265
C                -8.5218785592        2.4972815404       -1.2563906630
C                -6.4802004621        1.2700537258       -0.2801409568
H                -0.8376475634        0.6035830053       -1.7957026005
H                -0.4628828543        1.8452430368       -0.5934986336
H                -1.0049578710        2.3347542546       -2.2331137208
H                 1.9364358904       -1.1142595669        3.0031150839
H                 1.5098358869       -4.6385286576        1.5577471338
H                 2.4987871809       -5.2693049610       -1.7650274499
H                 3.9707441715       -5.4522718849       -0.7916278392
H                 2.4182981281       -6.0497519040       -0.1735375051
H                 4.1440836393       -3.1826320213       -2.3969264383
H                 4.6251076951       -0.8046687739       -2.7831900628
H                 4.4487391262        1.3996368644       -2.2951530950
H                 1.9544578082        1.7548272427       -2.1405329054
H                 2.1840146599        2.2714571499       -0.4706638738
H                 2.9931357829        3.6715262462       -3.0308362127
H                 2.3931005013        4.3653501933       -1.5047042707
H                 4.0734531640        3.9017253064        0.3875220979
H                 5.7602680328        3.9419182973       -0.1696869346
H                 5.8578891303        1.6094320412       -0.4107467309
H                 4.5142930757        1.6449590358        0.7316982855
H                 2.5071878427        0.3003209486        0.7718592046
H                 1.4956381777       -3.5582928947        3.8300986580
H                 0.4133328215       -2.2889024718        4.4781572073
H                -2.1340768722       -3.2526646988        2.2689320399
H                -3.6678684034       -1.4577103284        2.8764733020
H                -5.4527623683       -0.0733566220        1.8610391593
H                -4.0929370591        3.3565810677       -0.7914520770
H                -8.9274754184        3.3781381965       -0.7620312467
H                -9.0952567142        1.6224064400       -0.9611170206
H                -8.6183941289        2.6459482132       -2.3302949261
H                -6.8679932901        0.3294420224        0.0520507460



