%chk=calculation/no_transfer_pubchem_sampling_3_b3lyp/126890487_rwf.chk
%rwf=calculation/no_transfer_pubchem_sampling_3_b3lyp/126890487_rwf.rwf
%nprocshared=14
%mem=3GB
#p b3lyp/6-31g(d) 6D 10F nosymm GFInput td=(50-50,nstate=2) SCF=XQC 

Gaussian input prepared by ASE

0 1
C                -6.9512798687        0.5633060554        0.0695783712
C                -5.5983732918        0.3918712030        0.7089876192
C                -4.4532105333        0.1937961605       -0.0492758131
C                -3.2247032261        0.0413127435        0.6367556362
N                -2.0210736014       -0.1487159842       -0.0101704565
C                -1.9764480456       -0.1398094297       -1.4495024792
C                -0.9163549481        0.6534085374       -2.1785807330
C                -2.3438770290        1.1192271133       -2.2046760424
C                -0.8648214728       -0.6316188377        0.7820079405
C                -0.0114745503       -1.6742950053        0.0417334865
C                 1.1345742945       -2.1502860781        0.9509845435
N                 1.9524846402       -1.0344529231        1.4424799236
C                 2.9826422708       -0.6245596322        0.6221157605
N                 3.3219392482       -1.1921528944       -0.5157326819
C                 4.4638245767       -0.5146432777       -0.9301032351
C                 5.2531008671       -0.7000983380       -2.0682328384
C                 6.3567846402        0.1348113380       -2.2493662222
C                 6.6745491876        1.1406103758       -1.3219308715
C                 5.8922164377        1.3479981775       -0.1821983855
C                 4.7974012695        0.5078164855       -0.0104102590
N                 3.8095285395        0.4338272237        0.9704788411
C                 1.1593620260       -0.0358967817        2.1713151574
C                 0.0081749350        0.5205109460        1.3169833052
N                -3.1986349575        0.0741941089        1.9860260274
C                -4.3655135202        0.2633624884        2.6036129202
N                -5.5678516957        0.4344121560        2.0607816131
H                -7.6395609713       -0.2087969551        0.4313892202
H                -6.8992223772        0.5081503618       -1.0217452122
H                -7.3814742772        1.5301391364        0.3547540426
H                -4.5105596574        0.1441630240       -1.1281860761
H                -2.2675958356       -1.0779315701       -1.9263205925
H                -0.4896549578        0.2073832277       -3.0723801405
H                -0.2123607965        1.2316250281       -1.5907639942
H                -2.5968799352        1.9936542127       -1.6130026723
H                -2.9177806638        1.0119077255       -3.1211542417
H                -1.3005963960       -1.1208379008        1.6588804344
H                -0.6300090609       -2.5347429406       -0.2438044677
H                 0.4265235307       -1.2623769096       -0.8718200062
H                 0.7312578151       -2.6674878629        1.8319250394
H                 1.7884866598       -2.8380693439        0.4144214490
H                 5.0069914481       -1.4793292806       -2.7832945764
H                 6.9855954466        0.0047258627       -3.1260767234
H                 7.5427962484        1.7712500922       -1.4915136045
H                 6.1358964578        2.1288578636        0.5333591326
H                 3.8616127025        0.8591223456        1.8832796631
H                 0.7566061176       -0.5268591253        3.0666259656
H                 1.8052461077        0.7738496862        2.5212564871
H                -0.6137367693        1.1906278562        1.9200465259
H                 0.4275970349        1.1031936422        0.4879709629
H                -4.3221450631        0.2838448932        3.6924952576



