%chk=./calculation/no_transfer_pubchem_sampling_3_b3lyp/126890487.chk
%nprocshared=7
%mem=6GB
#p b3lyp/6-31g(d) opt SCF=XQC 

Gaussian input prepared by ASE

0 1
C                -6.7579636838        0.8506922029        0.0480911847
C                -5.4382276394        0.5374104558        0.6788714389
C                -4.3207483617        0.2560332193       -0.0826014992
C                -3.1218754174       -0.0157126155        0.5993134146
N                -1.9518030884       -0.2983064190       -0.0286256030
C                -1.8583067939       -0.2491772375       -1.4513885333
C                -0.7527988629        0.5142753461       -2.1241520516
C                -2.1516785242        1.0366420870       -2.1747260677
C                -0.8459608990       -0.7890167897        0.7864436342
C                 0.0542051066       -1.7729278189        0.0408787697
C                 1.1606241795       -2.2560968327        0.9819343626
N                 1.9218149027       -1.1380709260        1.5074105292
C                 2.8868014882       -0.6490150788        0.6736743614
N                 3.2730442923       -1.2348697950       -0.4288788706
C                 4.3205243505       -0.4839766851       -0.9041512368
C                 5.1015339714       -0.6467481334       -2.0397103953
C                 6.0975510280        0.2821866451       -2.2734439479
C                 6.3220245272        1.3507320922       -1.4087848317
C                 5.5527009037        1.5325913084       -0.2723959279
C                 4.5577569597        0.6055893628       -0.0354308018
N                 3.6156568810        0.4808745670        0.9637476574
C                 1.0891261550       -0.2208053129        2.2602191308
C                -0.0156146819        0.3606501507        1.3744046179
N                -3.1002526299       -0.0142098399        1.9423767564
C                -4.2294118620        0.2619306708        2.5600271959
N                -5.3924592107        0.5456667782        2.0157991419
H                -7.5374896494        0.8164545204        0.8031682425
H                -6.9815112963        0.1427321004       -0.7469889843
H                -6.7323693527        1.8505256417       -0.3838627791
H                -4.3793476312        0.2342630658       -1.1569691104
H                -2.1759902531       -1.1661868143       -1.9462899393
H                -0.3211163814        0.0891018233       -3.0172635513
H                -0.0435307549        1.0486099409       -1.5140373082
H                -2.3826836017        1.9038035714       -1.5751666882
H                -2.6957552205        0.9892852666       -3.1057424694
H                -1.3121850001       -1.3095107165        1.6332291260
H                -0.5288408164       -2.6247450470       -0.3104958962
H                 0.5292913247       -1.2980381648       -0.8165870000
H                 0.7339131747       -2.7952228732        1.8323819050
H                 1.8527143857       -2.9035755392        0.4445658992
H                 4.9295243291       -1.4739908118       -2.7094629589
H                 6.7219057227        0.1799999543       -3.1491426028
H                 7.1130072880        2.0522319447       -1.6291513465
H                 5.7261089747        2.3610912083        0.3989794913
H                 3.5500686700        1.0549143059        1.7852384104
H                 0.6407142372       -0.7855195848        3.0827984636
H                 1.6970475287        0.5757759874        2.6918687138
H                -0.6698453930        1.0060557834        1.9605269232
H                 0.4398922955        0.9496085407        0.5763574872
H                -4.1897866707        0.2559934948        3.6431465439



