%chk=./calculation/no_transfer_pubchem_sampling_3_b3lyp/129848894.chk
%nprocshared=7
%mem=6GB
#p b3lyp/6-31g(d) opt SCF=XQC 

Gaussian input prepared by ASE

0 1
O                -1.9559977462       -3.1929691563       -3.3975321289
C                -1.2915356587       -2.3398379840       -2.8669346457
N                -0.2913546475       -1.6881204118       -3.5415162001
C                 0.6427371346       -0.7949379100       -3.0316974430
O                 1.6190567116       -0.4997619281       -3.6834973447
N                 0.3822168580       -0.2879620507       -1.7871825204
C                 1.4523937026        0.5074231204       -1.1902030600
C                 1.7936273424        0.0651082233        0.2051852821
C                 1.8786814048       -1.2847441474        0.5200450465
C                 2.1839190750       -1.6880588429        1.8067379839
C                 2.4283739436       -0.7448783337        2.7900359492
C                 2.3795237319        0.6020876461        2.4755002784
C                 2.0612796670        1.0051004743        1.1907362659
C                -0.7602030002       -0.6227344258       -1.0701555439
C                -1.2628457651        0.0880930308       -0.0170248825
C                -0.9920961518        1.5173025589        0.2053752647
C                -0.8046089361        2.0156475709        1.4929243293
C                -0.6215544761        3.3696794776        1.7032140143
C                -0.6273876599        4.2494924128        0.6333119149
C                -0.8239413523        3.7671968065       -0.6499719278
C                -1.0075240623        2.4131667176       -0.8633708821
C                -2.1550605163       -0.5152711499        0.9343183527
C                -2.1428840968       -1.8069522923        1.3487569479
C                -1.3063497424       -2.8379958221        0.8233829085
C                -0.9113443978       -2.8884664692       -0.4568621039
C                -1.4656634215       -1.9003205063       -1.4380175593
H                -0.1075860637       -1.9896785235       -4.4927621437
H                 2.3197639404        0.3740911740       -1.8469096229
H                 1.1868780378        1.5682678135       -1.1982723720
H                 1.7084508832       -2.0250696243       -0.2472423036
H                 2.2366466503       -2.7410264475        2.0403324022
H                 2.6650512767       -1.0591817101        3.7956143256
H                 2.5840673934        1.3433710176        3.2337138390
H                 2.0213355930        2.0573110154        0.9499120329
H                -0.7818284428        1.3304657688        2.3275013282
H                -0.4709402132        3.7406395303        2.7064469191
H                -0.4841730357        5.3069081304        0.7986454168
H                -0.8389204885        4.4485520714       -1.4880619363
H                -1.1859793026        2.0445463408       -1.8640373760
H                -2.7781684091        0.1795925422        1.4827834466
H                -2.7397447536       -2.0650130102        2.2134860693
H                -0.9877136364       -3.6096400894        1.5101062660
H                -0.2091228106       -3.6279760137       -0.8117182238
H                -2.5394755590       -1.7834455940       -1.2450963634



