%chk=./calculation/no_transfer_pubchem_sampling_3_b3lyp/133436376.chk
%nprocshared=7
%mem=6GB
#p b3lyp/6-31g(d) opt SCF=XQC 

Gaussian input prepared by ASE

0 1
C                -8.1273886360        0.5702860911       -0.9818788559
C                -7.2292001336        1.2973980079       -0.0083515165
O                -7.6624376708        2.1509094973        0.7365706377
C                -5.8009278164        0.9225438118       -0.0045042927
C                -5.2455998876       -0.0710245657       -0.8100822074
C                -3.9036384176       -0.3716403517       -0.7465156219
C                -3.0238769566        0.3007845195        0.1196252269
N                -1.6951399175       -0.0037723935        0.1662148723
C                -1.0538209319       -0.7480670774       -0.8953415366
C                 0.4273787154       -0.3915085708       -0.9497281111
N                 1.1005665034       -0.8176153890        0.2731258016
C                 2.4140258845       -0.3651866157        0.4140622520
C                 2.8092472710        0.5699564024        1.3450385132
C                 4.1519603088        0.9921362881        1.4008655076
C                 4.5828154296        2.0014675914        2.4126127097
N                 5.0617557591        0.5576101000        0.5684641833
C                 4.7287738972       -0.3658994035       -0.3416366675
C                 5.7272492133       -0.8730021108       -1.2123385751
N                 7.0443423789       -0.2885645258       -1.2298298128
O                 7.1518710024        0.8998939451       -1.0469953439
O                 7.9679791153       -1.0421327249       -1.4687423812
C                 5.4732792524       -1.9326412356       -2.0501552534
C                 4.2078728127       -2.5206258491       -2.0711108643
C                 3.1998277749       -2.0169443459       -1.2885274946
C                 3.4208060296       -0.9215358133       -0.4370213639
C                 0.2174823683       -0.7961466793        1.4254554183
C                -0.8639494502        0.2780775550        1.3206872326
C                -3.6076262001        1.3110777841        0.9077059933
F                -2.8313738746        2.0611801163        1.7361989664
C                -4.9437315128        1.6105319932        0.8588875608
H                -8.1261646284       -0.4960692833       -0.7671118862
H                -9.1399421687        0.9534180453       -0.8861561161
H                -7.7793960238        0.7235941289       -2.0008314355
H                -5.8643660829       -0.6330355922       -1.4913032011
H                -3.5231849418       -1.1659984192       -1.3679755137
H                -1.5078127872       -0.4705300020       -1.8500717592
H                -1.1671809113       -1.8329163928       -0.7582267436
H                 0.8874020324       -0.8693655137       -1.8165703723
H                 0.5182834104        0.6980152680       -1.0836402539
H                 2.1010673606        1.0211285236        2.0232951543
H                 3.9771606102        2.9022912211        2.3312549385
H                 5.6262135627        2.2507897177        2.2476449979
H                 4.4601063656        1.6016786335        3.4182553738
H                 6.2670214913       -2.3030028975       -2.6816045155
H                 4.0289383625       -3.3727768401       -2.7081085367
H                 2.2299305286       -2.4897174723       -1.2881658808
H                 0.7984738308       -0.6627337418        2.3372181040
H                -0.2696872976       -1.7776784670        1.4899808006
H                -1.4712353934        0.2546661392        2.2272641811
H                -0.4038305030        1.2720442222        1.2413794861
H                -5.3403201282        2.3986516712        1.4802612010



