%chk=calculation/no_transfer_pubchem_sampling_3_b3lyp/133803156_rwf.chk
%rwf=calculation/no_transfer_pubchem_sampling_3_b3lyp/133803156_rwf.rwf
%nprocshared=14
%mem=3GB
#p b3lyp/6-31g(d) 6D 10F nosymm GFInput td=(50-50,nstate=2) SCF=XQC 

Gaussian input prepared by ASE

0 1
C                 6.3082585359       -0.7525941351       -3.7208851940
C                 6.0818093178        0.6671720301       -3.1911965266
N                 5.5116167556        0.7076449058       -1.8356940824
C                 6.4599127267        0.5648415396       -0.7252426141
C                 7.2753486957        1.8284284895       -0.4321478417
C                 4.1517633215        0.5114769649       -1.7436163176
O                 3.4687074023        0.2915658093       -2.7452415851
C                 3.4734197517        0.5903561099       -0.3981737879
C                 3.7399061643        1.5774483076        0.5599010039
C                 2.9894862979        1.6178416646        1.7347513020
C                 1.9788508941        0.6910454554        1.9852671877
C                 1.6988831222       -0.2900181418        1.0198591130
N                 0.6838608022       -1.2595014392        1.1722099843
C                -0.1549415076       -1.4856235322        2.2419403900
O                -0.1259000570       -0.8329364981        3.2800308773
C                -1.1740560247       -2.6336714761        2.0317634441
C                -1.1035021798       -3.5744631300        3.2424214582
N                -2.5434606507       -2.1989962170        1.7571841528
C                -3.2695705175       -1.3978723852        2.7490203880
C                -3.2002676455        0.1248723484        2.5178238950
C                -3.5848284657        0.5335064299        1.0791303433
C                -5.1187956975        0.4648883408        0.8451781047
C                -5.5699755111        1.0306410919       -0.4858709528
C                -5.5620799837        2.4155960647       -0.7111491912
C                -5.9624459396        2.9482396618       -1.9360983644
C                -6.3828570353        2.1025581312       -2.9653538985
C                -6.4005582783        0.7235240293       -2.7559531615
C                -5.9982704331        0.1961811643       -1.5268382135
C                -2.7728300002       -0.3174445111        0.0784267768
C                -2.8816655130       -1.8223450132        0.3846962243
C                 2.4413915950       -0.3220552902       -0.1667011008
H                 6.7618691754       -0.7141166347       -4.7180783268
H                 5.3541137322       -1.2801516269       -3.7956532941
H                 6.9794592133       -1.3270763989       -3.0716569089
H                 5.3953333761        1.2005534744       -3.8514421957
H                 7.0253116834        1.2224257588       -3.1683373916
H                 5.9085480395        0.2600421415        0.1651377979
H                 7.1456620188       -0.2601009270       -0.9648484535
H                 7.8630476672        2.1442469386       -1.3005741514
H                 6.6300047417        2.6645548947       -0.1442585141
H                 7.9747520092        1.6370352114        0.3897241105
H                 4.5040865581        2.3253504706        0.3777010110
H                 3.1890210648        2.3898511581        2.4730873077
H                 1.4047221258        0.7170388327        2.9004285171
H                 0.5644984067       -1.8729210278        0.3770169705
H                -0.8725646512       -3.2107085819        1.1467503676
H                -1.8506322058       -4.3659614485        3.1353440401
H                -1.2794974202       -3.0326342443        4.1749093448
H                -0.1087427805       -4.0294469075        3.3125954061
H                -4.3211226382       -1.7243502155        2.7273199472
H                -2.8899842951       -1.6329772877        3.7457012333
H                -2.1805084797        0.4630295310        2.7283749704
H                -3.8576148022        0.6254807621        3.2424905431
H                -3.2953547034        1.5840050778        0.9376703896
H                -5.4742962662       -0.5681701065        0.9373543276
H                -5.6024682869        1.0256408322        1.6569350986
H                -5.2439828721        3.0838541424        0.0866428807
H                -5.9511187838        4.0248711359       -2.0862782370
H                -6.6973500431        2.5162036855       -3.9198386769
H                -6.7305563928        0.0555602880       -3.5476269222
H                -6.0228709612       -0.8803373305       -1.3703543415
H                -3.1080907996       -0.1268546794       -0.9486000864
H                -1.7194729419       -0.0129046399        0.1300115430
H                -3.9153243996       -2.1525316444        0.1963510388
H                -2.2504792900       -2.3982836964       -0.3031918445
H                 2.2143942584       -1.0505227083       -0.9408573141



