%chk=./calculation/no_transfer_pubchem_sampling_3_b3lyp/135905725.chk
%nprocshared=7
%mem=6GB
#p b3lyp/6-31g(d) opt SCF=XQC 

Gaussian input prepared by ASE

0 1
C                -5.3247812536       -1.7940732118        0.3150819596
C                -5.2906981090       -0.3012415960        0.1963232642
C                -6.2809144203        0.4916564079        0.7597181488
C                -6.2427123548        1.8705070042        0.6440516267
C                -5.2081371865        2.4803504699       -0.0434765926
C                -4.2096802784        1.7049189648       -0.6063128296
C                -4.2436089958        0.3229149983       -0.4840115641
C                -3.1816241839       -0.5008536859       -1.1476522173
O                -3.3455080885       -1.0411393363       -2.2251444753
N                -2.0192340655       -0.5955732660       -0.4602306945
C                -1.7729203406        0.0500463239        0.8118312943
C                -0.6107082510       -0.6627523632        1.5059732965
N                 0.6316808111       -0.5986775633        0.7494895975
C                 1.5257153148        0.4747170216        1.1372797123
C                 2.9137760060        0.2023957849        0.6260110596
N                 3.6452013168        1.1627062526        0.2005326082
C                 4.9181378412        0.8636110301       -0.2262585208
C                 5.7367395508        1.9003791314       -0.6840176930
C                 7.0145201691        1.6292927675       -1.1186474595
C                 7.5078904483        0.3256300341       -1.1101805313
C                 6.7156708899       -0.7083262346       -0.6644554495
C                 5.4181293750       -0.4527482640       -0.2185741830
C                 4.5648554059       -1.5408373929        0.2537256794
O                 4.8506348997       -2.7175984994        0.2999083741
N                 3.3160939935       -1.0978436363        0.6748004755
C                 0.3980925212       -0.5953316002       -0.6946481296
C                -0.8981214996       -1.3115241853       -1.0385736901
H                -5.1946536557       -2.2485519261       -0.6653876290
H                -4.5131284355       -2.1465622133        0.9530093372
H                -6.2681904182       -2.1281992161        0.7391562328
H                -7.0959079399        0.0211296219        1.2910958760
H                -7.0255005002        2.4689631807        1.0862231711
H                -5.1795294979        3.5549688486       -0.1441646816
H                -3.4037512174        2.1708242638       -1.1554647562
H                -1.5220206553        1.1102529953        0.6673352047
H                -2.6700722666        0.0011239063        1.4345294188
H                -0.8743669861       -1.7178892498        1.6382983209
H                -0.4554245766       -0.2315057623        2.4958885467
H                 1.2178703660        1.4677574777        0.7728393702
H                 1.5759290753        0.5122692485        2.2304153466
H                 5.3413973757        2.9036714259       -0.6847155462
H                 7.6428376519        2.4344626250       -1.4704401248
H                 8.5120785606        0.1291571479       -1.4541479030
H                 7.0707782208       -1.7277070294       -0.6471658526
H                 2.6484846624       -1.7891879301        1.0003067742
H                 1.2367634897       -1.0955115835       -1.1877181933
H                 0.3486458709        0.4350020982       -1.0824596529
H                -0.8692579742       -2.3436033935       -0.6704029948
H                -1.0514736654       -1.3414688915       -2.1199103317



