%chk=./calculation/no_transfer_pubchem_sampling_3_b3lyp/136839346.chk
%nprocshared=7
%mem=6GB
#p b3lyp/6-31g(d) opt SCF=XQC 

Gaussian input prepared by ASE

0 1
C                 5.2136039073        1.0294533519        0.9093343070
C                 4.5893111397        1.6533980860        1.9417897182
S                 2.8959823815        1.3483486178        1.9630368215
C                 3.0285423927        0.3546627447        0.5479668700
C                 1.8602596312       -0.2657087624       -0.0087941195
C                 1.7730542496       -1.0805964543       -1.1606169630
C                 0.4362053324       -1.4068888143       -1.2520657531
N                -0.1870932054       -0.8063387065       -0.2118117037
N                 0.6667276370       -0.1162517451        0.5520556836
C                -1.5925712488       -0.8877810654        0.0946850279
C                -2.1243135286        0.4586093760        0.5202049819
C                -3.0270642732        0.5729154931        1.5686025238
C                -3.5090997373        1.8307754751        1.8956704469
N                -3.1521338805        2.9342718436        1.2640013279
C                -2.2872673779        2.8250072210        0.2706570801
C                -1.7492297493        1.6185340579       -0.1462922678
C                -2.3277653838       -1.3870284391       -1.1574942681
C                -1.5874036706       -2.5765524981       -1.7646674032
N                -0.2794606172       -2.1204371184       -2.1903716614
C                 4.3227702744        0.2859675696        0.1101784998
H                 6.2708121459        1.0948244787        0.7216806746
H                 5.0206179147        2.2787968883        2.6979430048
H                 2.5622241047       -1.3763710512       -1.8190451573
H                -1.7344448749       -1.6033711136        0.9190687624
H                -3.3453388743       -0.2977815257        2.1220741066
H                -4.2149939773        1.9627353609        2.7053633748
H                -2.0163731998        3.7525213155       -0.2163657101
H                -1.0429764558        1.5850828049       -0.9611972241
H                -3.3485609444       -1.6641334034       -0.8958590254
H                -2.3626424677       -0.5838832674       -1.8960975711
H                -1.5255636125       -3.3928120697       -1.0265722807
H                -2.1220103940       -2.9462483879       -2.6427862855
H                 0.2713421448       -2.7955059038       -2.7005629871
H                 4.6248562171       -0.2782143585       -0.7537138308



