%chk=calculation/no_transfer_pubchem_sampling_3_b3lyp/137177014_rwf.chk
%rwf=calculation/no_transfer_pubchem_sampling_3_b3lyp/137177014_rwf.rwf
%nprocshared=14
%mem=3GB
#p b3lyp/6-31g(d) 6D 10F nosymm GFInput td=(50-50,nstate=2) SCF=XQC 

Gaussian input prepared by ASE

0 1
C                 9.0813101152        2.0101500930       -0.2716199277
C                 9.0215123918        1.1281945206        0.9817772998
C                 7.6385611002        0.5179622511        1.2616371885
C                 7.2006735812       -0.5536381337        0.2550626924
O                 8.0846831883       -1.6582010581        0.2537069861
N                 5.8529788487       -1.0608162210        0.5645794257
C                 4.6957993679       -0.4727510686        0.0582189850
C                 4.6455888187        0.8440983230       -0.4421109361
N                 3.5320800127        1.4123985532       -0.9112955532
C                 2.3964653515        0.7149982106       -0.8973547717
C                 2.3160552907       -0.6046395983       -0.4129707990
C                 1.0647904671       -1.4056375144       -0.4194373343
N                 1.2201115552       -2.7599229442       -0.4723575340
C                 0.1791275838       -3.5692594607       -0.4825332049
C                -1.1258572350       -3.0539310198       -0.4394371923
N                -2.3619368746       -3.6349609211       -0.4426333821
N                -3.3605625404       -2.7402285983       -0.3701073069
C                -2.7963702211       -1.5354621818       -0.3170590261
C                -3.6518625723       -0.3550199234       -0.2318159914
N                -4.9719075682       -0.3922495475       -0.1896635426
C                -5.3665861398        0.9260789913       -0.1188224991
C                -6.6534471595        1.5071023747       -0.0396367488
C                -7.9095660878        0.7258342751       -0.0161221427
C                -8.0171865832       -0.5329912122       -0.6297917109
C                -9.2380784172       -1.2038173365       -0.5941367072
N               -10.3439955310       -0.7315896855       -0.0038252976
C               -10.2343173110        0.4636863621        0.5901835425
C                -9.0635819550        1.2175850437        0.6168465618
C                -6.6608466753        2.9085478474        0.0073069822
N                -5.5793648674        3.7124295465        0.0075828067
C                -4.3674432618        3.1630944291       -0.0474432453
C                -4.2351782073        1.7769389534       -0.1168187905
N                -3.1514706538        0.9263134961       -0.1900446345
C                -1.3570493264       -1.6612969208       -0.3615354112
C                -0.2125765126       -0.8534475694       -0.3454316994
F                -0.3609638010        0.4957737166       -0.2343076142
C                 3.4919836351       -1.1930972279        0.0558960519
H                 8.8755898885        1.4405506619       -1.1848704636
H                 8.3529296502        2.8288216318       -0.2164352910
H                10.0746765509        2.4580894782       -0.3853331621
H                 9.7602512586        0.3212522970        0.8974979388
H                 9.3142702029        1.7258927975        1.8543701804
H                 6.8798732803        1.3090760051        1.3020081327
H                 7.6237104882        0.0449755171        2.2553641774
H                 7.2289675167       -0.1640366713       -0.7715262324
H                 8.2997859025       -1.8602876292        1.1797914567
H                 5.8483033357       -2.0726621743        0.4914183000
H                 5.5374740956        1.4640643204       -0.4714710888
H                 1.5266374031        1.2174935283       -1.3056513321
H                 0.3746509874       -4.6391024636       -0.5258191888
H                -2.5959617146       -4.6157991158       -0.4893829575
H                -7.1592016833       -0.9842567496       -1.1126798020
H                -9.3317568559       -2.1794434275       -1.0691182565
H               -11.1321935471        0.8388790662        1.0794987404
H                -9.0491199258        2.1646209551        1.1468309593
H                -7.6138609877        3.4314543915        0.0238059673
H                -3.5098496537        3.8339084811       -0.0402596187
H                -2.1724207244        1.1757823857       -0.1995667239
H                 3.4656747257       -2.2175011301        0.4148837454



