%chk=./calculation/no_transfer_pubchem_sampling_3_b3lyp/137177014.chk
%nprocshared=7
%mem=6GB
#p b3lyp/6-31g(d) opt SCF=XQC 

Gaussian input prepared by ASE

0 1
C                 8.8545382843        2.0787932729       -0.1193385546
C                 8.9200009414        1.0824105760        1.0322216439
C                 7.5603388506        0.4594204068        1.3521836727
C                 7.1414243934       -0.6034589327        0.3266101617
O                 7.9950312335       -1.7062920524        0.3347066982
N                 5.7806925790       -1.0436681316        0.6037127021
C                 4.6725332317       -0.5167133855       -0.0053055986
C                 4.6602229050        0.7453184104       -0.6192319468
N                 3.5896501257        1.2660445212       -1.1820500425
C                 2.4511178108        0.6022360954       -1.1548553725
C                 2.3237600716       -0.6468394800       -0.5417490203
C                 1.0647794365       -1.4010822337       -0.5157950847
N                 1.1907549730       -2.7383204115       -0.5638811738
C                 0.1448239480       -3.5193663385       -0.5673272461
C                -1.1426490581       -2.9858098454       -0.5167759251
N                -2.3822733700       -3.5382087748       -0.5074005642
N                -3.3344930393       -2.6198884709       -0.4269165239
C                -2.7657158764       -1.4306862847       -0.3783061225
C                -3.5882637593       -0.2522662699       -0.2847226481
N                -4.8944094477       -0.3055100276       -0.1912954810
C                -5.3218765786        0.9846947827       -0.1352107559
C                -6.6089836289        1.5374780764       -0.0226581708
C                -7.8160960470        0.7158306333        0.0630063625
C                -7.8383866822       -0.5802993941       -0.4551201597
C                -9.0078171889       -1.3143358627       -0.3607595708
N               -10.1187402299       -0.8615050082        0.1975089922
C               -10.0957249120        0.3616195833        0.7000813993
C                -8.9852955459        1.1868167779        0.6635571059
C                -6.6425247740        2.9295668808       -0.0142392512
N                -5.5867940262        3.7341898851       -0.0754846111
C                -4.3745322121        3.2274580720       -0.1567810420
C                -4.2002148702        1.8525658987       -0.1965489685
N                -3.1113479532        1.0312471716       -0.2921626463
C                -1.3363431976       -1.5804381848       -0.4358638462
C                -0.1832388755       -0.7939087515       -0.4343845300
F                -0.2854228745        0.5496961889       -0.3178239955
C                 3.4607000688       -1.2096204610        0.0235593791
H                 8.5576463581        1.5908142777       -1.0440308494
H                 8.1397156958        2.8691884451        0.0997238091
H                 9.8294405921        2.5335431551       -0.2769781415
H                 9.6273326177        0.2874180208        0.7859945272
H                 9.2883963698        1.5948973511        1.9232651308
H                 6.7924499255        1.2324998313        1.3897374797
H                 7.5931618071       -0.0210821298        2.3348258742
H                 7.1951751989       -0.2010639381       -0.6932825243
H                 8.1630294276       -1.9685478576        1.2486241092
H                 5.7100419779       -2.0232286482        0.8418240423
H                 5.5481974347        1.3589051981       -0.6667256257
H                 1.6251915015        1.0813770664       -1.6592819668
H                 0.3294988477       -4.5834060570       -0.6092808863
H                -2.6306108792       -4.5134899036       -0.5533024380
H                -6.9543195070       -0.9983048562       -0.9070373478
H                -9.0626267545       -2.3219279864       -0.7527907877
H               -11.0186246272        0.6946342147        1.1581261311
H                -9.0255906811        2.1670281752        1.1123243616
H                -7.5887379556        3.4514072953        0.0267727461
H                -3.5508328030        3.9271605870       -0.1943314181
H                -2.1525345871        1.3294372921       -0.3455784908
H                 3.3953773344       -2.1844274649        0.4840840004



