%chk=./calculation/no_transfer_pubchem_sampling_3_b3lyp/137135225.chk
%nprocshared=7
%mem=6GB
#p b3lyp/6-31g(d) opt SCF=XQC 

Gaussian input prepared by ASE

0 1
O                 5.8707873825        1.0288685087       -1.5128090257
C                 6.4812101297        0.8445788654       -0.4827654098
N                 5.9893732768        0.1612254439        0.5916392210
C                 4.7459804028       -0.4497008203        0.7393303197
C                 4.5063485544       -1.2168942139        1.8827333099
N                 3.3692451247       -1.8391136234        2.1107167246
C                 2.3947407915       -1.7326255463        1.2274251693
C                 2.5104517177       -0.9847789007        0.0542020225
C                 1.4144510598       -0.8962109167       -0.9226251682
C                 1.7110905558       -0.9978247628       -2.2966464831
C                 0.7448434675       -0.9276549355       -3.2680559082
C                -0.5686150425       -0.7472314698       -2.8429972942
N                -1.7304035043       -0.6354722163       -3.5368515481
N                -2.7808820370       -0.4688411413       -2.7332444194
C                -2.3358397805       -0.4657568655       -1.4873003305
C                -3.2617885119       -0.3138308447       -0.4010992234
N                -2.9902551896       -0.3322051767        0.8749977221
C                -4.1803453033       -0.1620624274        1.5101716594
N                -4.3906252627       -0.1309655991        2.8172293705
C                -5.6428088134        0.0246640666        3.1937150234
C                -6.7300872583        0.1563080359        2.3288013346
C                -6.5433355925        0.1421109350        0.9490271652
C                -7.6535429545        0.2946660651        0.0009828998
C                -7.5241716753        1.0794064535       -1.1448202308
C                -8.6045951598        1.1854664277       -2.0040492419
N                -9.7609505298        0.5769003500       -1.8034325977
C                -9.8877084610       -0.1640586315       -0.7155837267
C                -8.8771762050       -0.3380381810        0.2147936722
C                -5.2232375979       -0.0245073943        0.5406522845
N                -4.5993676709       -0.1287947745       -0.6649298523
C                -0.9154237332       -0.6389007124       -1.4740548692
C                 0.1003938580       -0.7133802988       -0.5178477442
F                -0.1829603408       -0.5725356955        0.7795323913
C                 3.7167184152       -0.3333157033       -0.1881609229
C                 7.8891099681        1.3585698997       -0.2684212485
C                 8.9264117456        0.3161348213        0.2064834236
C                 9.1029750490        1.0819852805        1.5272114353
C                 8.1251367402        2.1592375886        1.0319252848
H                 6.6084503948        0.0455641966        1.3819003418
H                 5.2687775081       -1.3317223091        2.6445162021
H                 1.4906612825       -2.2745319824        1.4639495569
H                 2.7409830690       -1.1463432457       -2.5818435493
H                 0.9879944230       -1.0077537204       -4.3153166776
H                -1.8631320064       -0.6672296228       -4.5345449483
H                -5.8013921665        0.0475679590        4.2635805981
H                -7.7204608334        0.2962341276        2.7337827824
H                -6.6111058360        1.6209248819       -1.3425230745
H                -8.5438930952        1.7884107491       -2.9010151846
H               -10.8499219192       -0.6426056436       -0.5871688339
H                -9.0257928426       -0.9650810753        1.0803439989
H                -5.0023881671       -0.1230668486       -1.5872701285
H                 3.8538225209        0.2689765414       -1.0712218586
H                 8.1765744777        1.8891072025       -1.1764726666
H                 9.8200571697        0.2916039361       -0.4125413506
H                 8.5480250636       -0.7007755341        0.3000195312
H                10.1137252895        1.4389534007        1.7101907400
H                 8.7693555617        0.5412875334        2.4120910940
H                 8.5855424201        3.1289392198        0.8589835833
H                 7.2389690706        2.3061233438        1.6474496549



