%chk=calculation/no_transfer_pubchem_sampling_3_b3lyp/139558405_rwf.chk
%rwf=calculation/no_transfer_pubchem_sampling_3_b3lyp/139558405_rwf.rwf
%nprocshared=14
%mem=3GB
#p b3lyp/6-31g(d) 6D 10F nosymm GFInput td=(50-50,nstate=2) SCF=XQC 

Gaussian input prepared by ASE

0 1
C                 6.0525573453        1.1708642039       -1.4482165343
C                 5.9436164841        0.2865357669       -0.2477637520
C                 4.8387357777       -0.2471330791        0.4282645574
C                 3.4230151356       -0.1070187549        0.0481815658
N                 3.1677745872       -0.0151127305       -1.2525346672
C                 1.8858926402        0.1163214145       -1.6903218879
C                 1.6737707925        0.1905451494       -3.0928322000
C                 0.3964765614        0.3103122158       -3.5868528514
C                -0.7122964533        0.3663978616       -2.7124631436
C                -0.5640975430        0.2903865298       -1.3339562006
C                -1.7564977774        0.3133827499       -0.4713942218
N                -1.7877342068        0.9225872359        0.7698724827
C                -2.9970356179        0.7321134349        1.2588968866
C                -3.4621887663        1.2118633608        2.5757322847
C                -2.4646764677        1.3192721885        3.7168889525
C                -2.9884351438        2.5682119274        3.0763596399
N                -3.7731241363        0.0193894692        0.3747030588
C                -2.9917069302       -0.2547169156       -0.7280501401
C                -3.5539697676       -1.0906331182       -1.8276871815
N                -4.5774759140       -2.0176525843       -1.3347112580
C                -4.8680728700       -3.1691365359       -2.1788930577
C                -5.4139223751       -1.7293735930       -0.2928697414
O                -6.3736615413       -2.4234381534        0.0240028558
C                -5.1537222027       -0.4389846501        0.5039079402
C                -6.1682408427        0.6426582745        0.0934130042
C                 0.7663836858        0.1651078181       -0.8013940208
C                 1.0642799115        0.0799033346        0.5790892478
C                 2.3631147187       -0.0472530444        1.0156217180
C                 2.6223631196       -0.0989551082        2.4974257155
F                 2.7379662345       -1.4083050587        2.9223628882
F                 1.5748626047        0.4408991751        3.1968506886
C                 5.4138909944       -0.9815315461        1.5025559968
N                 6.7385736054       -0.9145883326        1.5048264741
N                 7.0412286145       -0.1328179207        0.4357504400
C                 8.4300958978        0.1785169962        0.1566276627
H                 6.5630376335        0.6602706584       -2.2755124519
H                 6.6184148591        2.0849432825       -1.2262921184
H                 5.0559247114        1.4384844783       -1.7976283000
H                 2.5428826019        0.1489856352       -3.7414106065
H                 0.2292614313        0.3771952079       -4.6587066933
H                -1.7030773428        0.5126563178       -3.1327963502
H                -4.4749840950        0.9257720159        2.8437930652
H                -2.8153012530        1.0555753285        4.7108885196
H                -1.4417901411        1.0294810038        3.4963967350
H                -3.7015539723        3.1801864014        3.6220944137
H                -2.3196101485        3.1119780760        2.4164831851
H                -2.7461854623       -1.6768400625       -2.2802659240
H                -3.9817478604       -0.4770137178       -2.6402985935
H                -5.6615941800       -3.7466469622       -1.7063988520
H                -3.9708804144       -3.7887791736       -2.2897601947
H                -5.1987715340       -2.8485389607       -3.1761162969
H                -5.3261683071       -0.7165109556        1.5466433493
H                -7.1823682600        0.2497525676        0.2057057350
H                -6.0563509201        1.5298900107        0.7242260697
H                -6.0197416822        0.9438892907       -0.9492320828
H                 0.2604295308        0.1666800397        1.2965250868
H                 3.5336273731        0.4242105913        2.7988541512
H                 4.9104155731       -1.5810775067        2.2468097109
H                 8.6910918748       -0.0968449947       -0.8704146581
H                 8.6338241372        1.2456686458        0.3008712671
H                 9.0334766925       -0.4019881990        0.8541466320



