%chk=./calculation/no_transfer_pubchem_sampling_3_b3lyp/140171028.chk
%nprocshared=7
%mem=6GB
#p b3lyp/6-31g(d) opt SCF=XQC 

Gaussian input prepared by ASE

0 1
C                -8.7160545446        2.8580866928        2.0494237789
O                -7.3947829120        2.7436965136        1.5860546759
C                -6.6802400349        1.6264110739        1.8979634036
C                -5.3833960735        1.5910171812        1.3944002930
C                -4.5746186296        0.4956653100        1.6572226341
N                -3.2676368586        0.3875951338        1.1888665850
C                -2.5695905988        1.2691700200        0.4318596595
O                -2.9436096339        2.3389282650        0.0049592630
N                -1.2731256883        0.8445597055        0.1387506825
C                -0.6146912858       -0.3032508970        0.4924517329
N                -1.1292521495       -1.2728855270        1.2224309426
N                -0.1779954679       -2.2281622798        1.3539467270
C                 0.9648229525       -1.8857602819        0.7089196306
C                 2.1881092049       -2.5291196004        0.5622325158
C                 3.1647351885       -1.8951529214       -0.1730091743
C                 2.9457737914       -0.6364798942       -0.7623998917
O                 3.8782639924        0.0363212209       -1.5004660870
C                 5.1433346894       -0.5463587292       -1.6946357829
C                 6.0063499424        0.3676734042       -2.5210967939
C                 5.5994780090        1.6347711238       -2.9025597296
C                 6.4302706608        2.4448257401       -3.6593111937
C                 7.6835262210        1.9960941860       -4.0290082065
C                 8.1134725104        0.7322135455       -3.6522780648
C                 7.2714342637       -0.0776767844       -2.9107749411
O                 7.6189877390       -1.3590850131       -2.4821382916
C                 8.6061412472       -2.0100653674       -3.1252100909
F                 8.4750785584       -3.3184991252       -2.8585812996
F                 9.8369599707       -1.6617328534       -2.6668369918
C                 1.7277577365        0.0078148985       -0.6188741289
C                 0.7320036279       -0.6203131741        0.1206819226
C                -5.0626766710       -0.5602949020        2.4212053073
C                -6.3568836569       -0.5205840657        2.9214760243
O                -6.7360840096       -1.6067767394        3.6580236214
C                -8.0334904296       -1.6376450847        4.1973121776
C                -7.1750154680        0.5746601996        2.6626983519
H                -9.3533053054        2.0570612490        1.6591745417
H                -8.7631069295        2.8595556313        3.1439141270
H                -9.0771128629        3.8151298284        1.6757317664
H                -5.0245867567        2.4166519095        0.8061042973
H                -2.7654609769       -0.4620713036        1.4449289846
H                -0.7490663600        1.4988810488       -0.4250055191
H                -0.3814420552       -3.0574360153        1.8833685869
H                 2.3707340708       -3.4940794628        1.0083071107
H                 4.1164214663       -2.3872234770       -0.2920611753
H                 5.6446812247       -0.7252230101       -0.7313827959
H                 5.0541568879       -1.5140591855       -2.2110514562
H                 4.6222032875        1.9747633141       -2.6015404478
H                 6.0989416826        3.4288708163       -3.9524281072
H                 8.3411585961        2.6259128477       -4.6077476180
H                 9.1047952734        0.4026839425       -3.9220043092
H                 8.6147580550       -1.8735390712       -4.2237612254
H                 1.5808128444        0.9715301460       -1.0791903823
H                -4.4481710248       -1.4197852346        2.6354434256
H                -8.2000319143       -0.8126291145        4.8980969923
H                -8.7981052846       -1.6094944864        3.4136968801
H                -8.1069784520       -2.5824100892        4.7341152133
H                -8.1786536598        0.6072517423        3.0502818490



