%chk=calculation/no_transfer_pubchem_sampling_3_b3lyp/140171028_rwf.chk
%rwf=calculation/no_transfer_pubchem_sampling_3_b3lyp/140171028_rwf.rwf
%nprocshared=14
%mem=3GB
#p b3lyp/6-31g(d) 6D 10F nosymm GFInput td=(50-50,nstate=2) SCF=XQC 

Gaussian input prepared by ASE

0 1
C                -8.7453959722        2.9130071451        2.0130848313
O                -7.4124863285        2.7752491012        1.5569165699
C                -6.7183707325        1.6451162431        1.8910436239
C                -5.4112755307        1.5929855218        1.3981640976
C                -4.6256445703        0.4736064158        1.6897958469
N                -3.2990631533        0.3181169217        1.2445441897
C                -2.5651100885        1.1892759750        0.4839959854
O                -2.9349848053        2.2725691204        0.0499418027
N                -1.2567779985        0.7590717732        0.1930709817
C                -0.5646361597       -0.3925395373        0.5327920347
N                -1.0826295154       -1.3670050417        1.2623496075
N                -0.1043683219       -2.3169144702        1.3781273678
C                 1.0418417968       -1.9574276102        0.7270245189
C                 2.2815331527       -2.5897281645        0.5686921348
C                 3.2553207682       -1.9339510234       -0.1726112771
C                 3.0111935821       -0.6642682904       -0.7540766376
O                 3.9382203650        0.0234639705       -1.4946041640
C                 5.2194523883       -0.5523374809       -1.6929221587
C                 6.0622706475        0.3898321465       -2.5214037553
C                 5.6195220841        1.6494370530       -2.9260796735
C                 6.4354881888        2.4823121716       -3.6961965159
C                 7.7141440149        2.0648477006       -4.0575431103
C                 8.1859070849        0.8136551643       -3.6522841125
C                 7.3508290532       -0.0117523043       -2.9016624341
O                 7.7406634299       -1.2704026044       -2.4471376980
C                 8.6020689052       -2.0038466528       -3.2250465888
F                 8.4907658147       -3.2845522871       -2.8274051572
F                 9.8935227529       -1.6199058798       -3.0116359012
C                 1.7797890171       -0.0371322345       -0.5966621753
C                 0.7895318300       -0.6894775590        0.1491632037
C                -5.1449902511       -0.5750203184        2.4634099217
C                -6.4509284972       -0.5004380028        2.9437865681
O                -6.8627128676       -1.5734195359        3.6878078124
C                -8.1790260571       -1.5668065881        4.2105121638
C                -7.2593358747        0.6102355810        2.6659001744
H                -9.3933168733        2.1152874849        1.6244827752
H                -8.8018966276        2.9183664379        3.1103308775
H                -9.0941967214        3.8749610907        1.6320405463
H                -5.0256538063        2.4077784445        0.8042772674
H                -2.8298169683       -0.5425161819        1.5198595387
H                -0.7672600402        1.4412614270       -0.3683397395
H                -0.3011562029       -3.1502631972        1.9070213220
H                 2.4860208992       -3.5617710183        1.0071270160
H                 4.2180365679       -2.4138667658       -0.3016342150
H                 5.7074006962       -0.7425930574       -0.7254305838
H                 5.1304313201       -1.5232542983       -2.2014545965
H                 4.6243233440        1.9666103823       -2.6376297258
H                 6.0707827361        3.4573523632       -4.0056983105
H                 8.3589930523        2.7119737257       -4.6451371014
H                 9.1944279012        0.4976701078       -3.8923632824
H                 8.3876337789       -1.9163136725       -4.2954372493
H                 1.6223853801        0.9350124280       -1.0540524889
H                -4.5494538911       -1.4511983499        2.6995865401
H                -8.3395737420       -0.7248136411        4.8974725246
H                -8.9332558550       -1.5278928030        3.4128351851
H                -8.2876021037       -2.5037511764        4.7607069045
H                -8.2715829957        0.6661068505        3.0392747178



