%chk=calculation/no_transfer_pubchem_sampling_3_b3lyp/141164564_rwf.chk
%rwf=calculation/no_transfer_pubchem_sampling_3_b3lyp/141164564_rwf.rwf
%nprocshared=14
%mem=3GB
#p b3lyp/6-31g(d) 6D 10F nosymm GFInput td=(50-50,nstate=2) SCF=XQC 

Gaussian input prepared by ASE

0 1
C                -0.4121435587       -1.4921656844       -1.3079456689
O                -1.6564144434       -2.1530235235       -1.2082872036
C                -2.2350847064       -2.0884017301        0.1017658084
C                -2.8694325886       -0.7348733248        0.3836658654
C                -2.3002498239        0.2450061600        1.2332528324
C                -1.0509716041       -0.0200022771        2.0322597914
O                -0.8159674951       -1.0878516250        2.5954660998
N                -0.1896502242        1.0440963378        2.1241180493
C                 1.0369445132        0.9779565320        2.9110602180
C                 2.2409657483        0.3845340154        2.1641213816
C                 2.6874876602        1.2124688315        0.9440091587
C                 3.8988124046        0.6347934283        0.2409638911
C                 5.1725963376        1.1702645550        0.4555194923
C                 6.3250492730        0.6370402644       -0.1523755250
C                 6.1452309187       -0.4531958817       -0.9777672758
C                 4.8820747455       -0.9968050307       -1.2021644934
C                 3.7464723049       -0.4798364587       -0.6150312476
O                 4.9820884135       -2.0458252236       -2.0868806188
C                 6.3860955282       -2.2661395985       -2.2609264305
O                 7.0829633710       -1.1418068927       -1.7140561020
C                -2.9453641183        1.4777663186        1.3844707170
C                -4.1361315702        1.7682015663        0.7198048802
C                -4.7063554755        0.8110549884       -0.1205355506
O                -5.8695290933        0.9734689711       -0.8087262079
C                -6.5819976616        2.1902221811       -0.6431653708
C                -4.0623592371       -0.4365440327       -0.2872432479
O                -4.6681366743       -1.4006710170       -1.0506581934
C                -4.5356381958       -1.2497026732       -2.4699106118
H                -0.0504719073       -1.6461550470       -2.3286103645
H                -0.4958163687       -0.4096187310       -1.1230045711
H                 0.3226775722       -1.9089167511       -0.6003943820
H                -3.0127119265       -2.8540562085        0.1035256326
H                -1.4905035005       -2.3310364820        0.8633923297
H                -0.3494362610        1.8440490382        1.5300216338
H                 0.8185417629        0.3644418997        3.7889113739
H                 1.2661074038        1.9939804177        3.2561798410
H                 1.9911415012       -0.6370545506        1.8554623297
H                 3.0776561004        0.3043722788        2.8708884785
H                 2.9113966145        2.2383122439        1.2673416334
H                 1.8511968685        1.2830454579        0.2350479027
H                 5.2802436256        2.0284446905        1.1138971020
H                 7.3080226403        1.0643203224        0.0144368372
H                 2.7710557019       -0.9164004014       -0.8072062370
H                 6.6111834419       -2.3497262372       -3.3278113880
H                 6.6828226672       -3.1788905366       -1.7241866249
H                -2.5352601766        2.2172582914        2.0661078243
H                -4.6174903078        2.7262144835        0.8793553864
H                -5.9931930920        3.0530350304       -0.9817733776
H                -6.8783827492        2.3424920305        0.4026433864
H                -7.4759464101        2.0977182649       -1.2621573654
H                -5.1003778030       -2.0742360399       -2.9109779672
H                -4.9607775987       -0.2980115266       -2.8068700489
H                -3.4830295475       -1.3283631138       -2.7590248025



