%chk=./calculation/no_transfer_pubchem_sampling_3_b3lyp/141164564.chk
%nprocshared=7
%mem=6GB
#p b3lyp/6-31g(d) opt SCF=XQC 

Gaussian input prepared by ASE

0 1
C                -0.2594770324       -1.6255267475       -0.6361927583
O                -1.4974017823       -2.2710336872       -0.7610551232
C                -2.3359018601       -2.1451074435        0.3780822227
C                -2.9116353925       -0.7529049273        0.5036066026
C                -2.3325452448        0.2293105821        1.3156481001
C                -1.1695207934       -0.0696600416        2.2082340397
O                -1.0956934249       -1.0454196643        2.9285687500
N                -0.2020331685        0.8804192599        2.1687224911
C                 1.0138276139        0.7785618659        2.9412042410
C                 2.1961545099        0.2588323428        2.1192029335
C                 2.5776922306        1.2012369453        0.9710772119
C                 3.7637166568        0.6586687228        0.2244314788
C                 5.0506583397        1.0347967367        0.5749476947
C                 6.1744890000        0.5199921394       -0.0678754355
C                 5.9560101681       -0.3893665411       -1.0722464232
C                 4.6643381997       -0.7776127529       -1.4310449829
C                 3.5570114128       -0.2706739022       -0.8000799252
O                 4.7303488411       -1.6846769719       -2.4554112296
C                 6.1040269380       -1.8619030358       -2.7267111070
O                 6.8638800604       -1.0441464667       -1.8635229299
C                -2.8771635067        1.5070798028        1.3308901895
C                -3.9713214197        1.8321119101        0.5507054577
C                -4.5503595393        0.8732721185       -0.2703564427
O                -5.6166607822        1.0869779336       -1.0835775610
C                -6.2577493872        2.3380834488       -1.0422741327
C                -4.0146515514       -0.4291821572       -0.2823460668
O                -4.6295327017       -1.4043871303       -1.0312211460
C                -4.3029272901       -1.3864048205       -2.4081844682
H                 0.3212352880       -1.9055436764       -1.5145384719
H                -0.3707394180       -0.5329965104       -0.6068115547
H                 0.2664216737       -1.9508216719        0.2696052318
H                -3.1488937451       -2.8538416903        0.2095956940
H                -1.7905444310       -2.4164321439        1.2875523060
H                -0.2756874432        1.6296528053        1.5004274515
H                 0.8035598626        0.0801090258        3.7547196469
H                 1.2499642006        1.7610926799        3.3611241868
H                 1.9436794246       -0.7212571690        1.7123866033
H                 3.0542318244        0.1360970680        2.7817332188
H                 2.8123062519        2.1871865372        1.3773886308
H                 1.7342083488        1.2990573517        0.2850852708
H                 5.1918012156        1.7520580037        1.3692905546
H                 7.1716929252        0.8191695892        0.2070627969
H                 2.5648412307       -0.5785447496       -1.0861534404
H                 6.3115923394       -1.5864276931       -3.7732547793
H                 6.3774182940       -2.9180474005       -2.5702406857
H                -2.4594956281        2.2603469968        1.9834457371
H                -4.3689958986        2.8335693765        0.5953211476
H                -5.5945172067        3.1423579753       -1.3782035644
H                -6.6281381561        2.5664528669       -0.0382193649
H                -7.1003094290        2.2579925291       -1.7271863515
H                -4.8978415962       -2.1745726237       -2.8651431275
H                -4.5570129769       -0.4251672393       -2.8648317414
H                -3.2383530441       -1.5975797559       -2.5533780762



