%chk=./calculation/no_transfer_pubchem_sampling_3_b3lyp/141268155.chk
%nprocshared=7
%mem=6GB
#p b3lyp/6-31g(d) opt SCF=XQC 

Gaussian input prepared by ASE

0 1
C                -6.1745137563        0.0620654127       -0.5654106526
C                -5.4935289211       -0.7946053817        0.4908542927
O                -4.0839662097       -0.5475709341        0.5295516764
C                -3.3391234059       -1.1594108097       -0.3938637830
O                -3.7684264266       -1.9522671183       -1.1926387140
C                -1.8901613866       -0.8133732775       -0.2966589035
C                -0.9962755404       -1.7974095220       -0.7193202532
C                 0.3650679053       -1.5934673551       -0.6683890277
C                 0.8600586450       -0.3758941276       -0.2017278183
C                 2.2888920326       -0.1561477075       -0.1464267033
N                 3.1963598894       -1.0159304203       -0.4904610104
C                 4.3935180142       -0.3864717031       -0.2744243375
C                 5.7058222569       -0.8053334210       -0.4595356724
C                 6.7031100652        0.0912002905       -0.1380725696
C                 6.4180414437        1.3671987971        0.3529578972
C                 5.1203681595        1.8031620257        0.5443883993
C                 4.1187673792        0.9065489642        0.2229393510
O                 2.7726286059        1.0363053987        0.2990567178
C                -0.0252144843        0.6254159592        0.1951000351
C                -1.3930062651        0.4146063130        0.1550037575
C                -2.3213289971        1.5362152886        0.5583237342
F                -1.6390404616        2.6754791117        0.8295614492
F                -3.1731880631        1.8535213119       -0.4501634195
H                -5.8320972309       -0.2283754474       -1.5552648949
H                -7.2501991405       -0.0765257886       -0.5082062096
H                -5.9376156169        1.1113046673       -0.4084769193
H                -5.8472730975       -0.5467947803        1.4936948217
H                -5.6599841498       -1.8573847391        0.2874714828
H                -1.4037907964       -2.7263841492       -1.0880022001
H                 1.0625428560       -2.3516255601       -0.9855058361
H                 5.9199849552       -1.7906691334       -0.8390612760
H                 7.7355722699       -0.1964035450       -0.2680901041
H                 7.2350486897        2.0317465335        0.5893643503
H                 4.8950148755        2.7870712928        0.9225426678
H                 0.3654560957        1.5735633830        0.5311976487
H                -2.9275211889        1.2966401711        1.4454630231



