%chk=./calculation/no_transfer_pubchem_sampling_3_b3lyp/142510241.chk
%nprocshared=7
%mem=6GB
#p b3lyp/6-31g(d) opt SCF=XQC 

Gaussian input prepared by ASE

0 1
C                 6.6079044260        0.8673735452        0.6925931425
C                 5.4461080299        1.0843311959        0.0155232256
N                 4.6943856222       -0.0503383746        0.1820429598
C                 3.3707849672       -0.2682255028       -0.3003510051
O                 2.4736518974        0.3293125605        0.6061048493
C                 1.1320607759        0.2525729978        0.3574250363
C                 0.3052562967        0.8704805769        1.2920412036
C                -1.0622185978        0.8575516278        1.1178984187
C                -1.6386142048        0.2283033758        0.0225450037
C                -3.1386128583        0.2154896806       -0.1862795701
N                -3.8721393003        0.8744497119        0.8550075147
C                -4.1568813998        2.2095030536        0.9317129402
C                -4.8198965624        2.3870869464        2.1112160701
N                -4.9413988147        1.1988485562        2.7580470593
C                -4.3640044999        0.3197721124        1.9881997392
C                -0.8146982434       -0.4070969643       -0.9083399942
C                -1.4140934553       -1.0921499974       -2.0862967795
C                -2.0751297522       -2.4343955024       -1.9227050979
C                -0.7949731710       -2.3152670064       -2.6902457484
C                 0.5648290908       -0.3827899405       -0.7381244353
C                 5.4366065108       -0.8805287448        0.9622554720
N                 6.5863151512       -0.3624364786        1.2734869911
H                 7.4580225470        1.5104192026        0.7982297898
H                 5.0923837684        1.9173317395       -0.5556790208
H                 3.2664418384        0.1842981657       -1.2998789973
H                 3.1904386293       -1.3527782387       -0.3666017591
H                 0.7560683870        1.3565182946        2.1415377482
H                -1.6859710514        1.3454580791        1.8512220408
H                -3.3724479222        0.7054114619       -1.1391092422
H                -3.4851130881       -0.8214772865       -0.2530603252
H                -3.8721397132        2.8952600470        0.1602376907
H                -5.2177426466        3.2878101915        2.5332572308
H                -4.2824872978       -0.7268527527        2.2052478078
H                -1.9004872793       -0.4092773505       -2.7763797067
H                -2.9897792282       -2.6311883669       -2.4611210076
H                -2.0299375832       -2.9015310549       -0.9501975374
H                 0.0945013078       -2.7243768271       -2.2370857613
H                -0.8242557249       -2.4262890323       -3.7634676583
H                 1.1816951497       -0.8593845207       -1.4834778245
H                 5.0955679992       -1.8512001808        1.2625685371



