%chk=calculation/no_transfer_pubchem_sampling_3_b3lyp/142967220_rwf.chk
%rwf=calculation/no_transfer_pubchem_sampling_3_b3lyp/142967220_rwf.rwf
%nprocshared=14
%mem=3GB
#p b3lyp/6-31g(d) 6D 10F nosymm GFInput td=(50-50,nstate=2) SCF=XQC 

Gaussian input prepared by ASE

0 1
C                -4.8009672507        2.8447878168       -0.3387167069
S                -4.5596599820        1.2090046365       -0.2239953541
N                -5.4018173909        0.1409876386        0.9704775832
C                -6.7843928359       -0.3016869830        0.6910271553
C                -7.0449308204       -1.3994667733        1.7530947304
O                -8.3834392920       -1.8796804015        1.7645193887
C                -7.8751618173        0.8221893215        0.7704479386
C                -8.7851242911        0.6153242979       -0.4527731013
C                -7.8203071420        0.0938332754       -1.5306443427
C                -6.9183294769       -0.8807508862       -0.7533707604
C                -3.0263878671        1.2307664341        0.8600425118
O                -3.1537578064        1.5478459012        2.0212671852
C                -1.7296380832        0.9552415145        0.2010583484
C                -1.6167151599        0.5017811979       -1.1195831169
C                -0.3610235621        0.2353518654       -1.6612677771
C                 0.8046693444        0.4131454374       -0.9064554399
C                 2.1722972869        0.1422838012       -1.5105389514
C                 3.0096069750       -0.8641495613       -0.7381220991
C                 2.5314915235       -2.1700495690       -0.5162287686
C                 3.2862989703       -3.0978855707        0.1832203214
C                 4.5437022094       -2.7338388240        0.6729356166
O                 5.2255095508       -3.6952918953        1.3597628562
C                 6.4784090470       -3.4666763804        1.9197886668
O                 7.0059764121       -4.3665206518        2.5275935072
C                 7.0412804582       -2.1404042260        1.6953266083
C                 6.3914888457       -1.1739158159        1.0042535228
C                 7.1057175881        0.1485942615        0.7472089239
F                 8.1452151756        0.2761110598        1.6372672892
F                 6.2395986903        1.1876959234        1.0377534740
C                 7.6588929748        0.2903319978       -0.6695582555
C                 8.4802232396        1.5675027676       -0.9265493307
C                 7.6676420415        2.8640561696       -1.0274229759
C                 5.0652199020       -1.4416924263        0.4637800123
C                 4.2614963088       -0.5186681820       -0.2418643103
C                 0.6832873570        0.8616277426        0.4194986055
C                -0.5625568954        1.1296705071        0.9678008204
H                -5.4194628208        3.1681784025       -1.1686562108
H                -4.7153336017        3.4785232213        0.5385452715
H                -5.3542348707        0.6083397672        1.8791511361
H                -6.8809198905       -0.9789516318        2.7518404122
H                -6.3203986241       -2.2145219056        1.6124349066
H                -8.5019025676       -2.4527012935        0.9921047329
H                -7.3859085537        1.7996971518        0.7091875511
H                -8.4287261305        0.7816424633        1.7139157886
H                -9.3151126968        1.5266761339       -0.7515139960
H                -9.5397276976       -0.1486036969       -0.2273398121
H                -7.2236841051        0.9249830735       -1.9298411263
H                -8.3269529144       -0.3796269236       -2.3793852721
H                -7.4090071474       -1.8634119447       -0.7116207872
H                -5.9415583738       -1.0459400863       -1.2163735501
H                -2.5049200141        0.3547468543       -1.7242933843
H                -0.2863147290       -0.1121924990       -2.6887079522
H                 2.0396074457       -0.2062105136       -2.5428709773
H                 2.7286263148        1.0861889466       -1.5776429682
H                 1.5505826602       -2.4528790875       -0.8889813585
H                 2.9280794219       -4.1051529403        0.3676148444
H                 8.0253280067       -1.9767939701        2.1143600870
H                 8.2897988071       -0.5902350055       -0.8389468826
H                 6.8236410325        0.2171173947       -1.3754917569
H                 9.2419349540        1.6612283500       -0.1441939077
H                 9.0245587423        1.4126428487       -1.8665411291
H                 7.1768474735        3.1105588601       -0.0829484332
H                 6.8912326723        2.7845600858       -1.7989021278
H                 8.3187347106        3.7019305148       -1.2999870685
H                 4.6233092960        0.4919303396       -0.3848492708
H                 1.5769216385        0.9948809699        1.0236965559
H                -0.6588506663        1.4759406990        1.9914409089



