%chk=calculation/no_transfer_pubchem_sampling_3_b3lyp/144414844_rwf.chk
%rwf=calculation/no_transfer_pubchem_sampling_3_b3lyp/144414844_rwf.rwf
%nprocshared=14
%mem=3GB
#p b3lyp/6-31g(d) 6D 10F nosymm GFInput td=(50-50,nstate=2) SCF=XQC 

Gaussian input prepared by ASE

0 1
F                 5.1836009034        2.9461762915        3.0837528978
C                 6.2719635993        2.6088556199        2.3537968467
F                 6.8097815691        3.7571460967        1.8795719369
F                 7.1783630957        2.0917133605        3.2194587496
C                 5.9416336965        1.6478426591        1.2473492431
C                 6.8830940635        1.4633804301        0.2111225929
C                 6.6563430555        0.5548639876       -0.8134856629
C                 5.4629736582       -0.1796698138       -0.7966653187
N                 4.9933461422       -1.1363166137       -1.6813218500
C                 3.8252081013       -1.5028732025       -1.2004342206
C                 2.9050107788       -2.5028902775       -1.8626927129
C                 2.0461358490       -3.2280111647       -0.8452774510
C                 0.7940778683       -2.8222439053       -0.5765284418
C                 0.1698693549       -1.6778529110       -1.2746219114
C                -1.0694815724       -1.0886790836       -0.7272793966
C                -1.3344117970        0.2905892613       -0.7668683476
N                -2.4436040522        0.8513749926       -0.3048317422
C                -3.3636482200        0.0191201292        0.2408714005
N                -4.5230642931        0.5719375402        0.7045420846
C                -5.5596711824       -0.2224403757        1.3635359990
C                -6.9316718002        0.0367273298        0.7256984626
C                -7.2565017033        1.5372913062        0.6953634921
C                -6.1219209089        2.3227615800        0.0218550466
C                -4.7681438669        2.0140444831        0.6760409276
N                -3.2131474182       -1.3215921198        0.3580860823
C                -2.0886121309       -1.8400109772       -0.1211793540
C                 0.7663978576       -1.2086088397       -2.3934518453
C                 2.0152885335       -1.8409597945       -2.9488348663
N                 3.4931988184       -0.8407664437       -0.0394494079
C                 4.5314860624        0.0225773781        0.2528873479
C                 4.7477443534        0.9295191771        1.2880212943
H                 7.7943010814        2.0526563615        0.2201234226
H                 7.3756802881        0.4130044587       -1.6136312066
H                 3.5715531622       -3.2112460113       -2.3647848964
H                 2.4934681883       -4.0475943398       -0.2877819646
H                 0.2214087115       -3.3252898952        0.1987204404
H                -0.5922713804        0.9743319159       -1.1797349934
H                -5.5915450189        0.0554158850        2.4300929341
H                -5.2779448044       -1.2720105394        1.2985757838
H                -7.6971818662       -0.5150660449        1.2856234387
H                -6.9275184025       -0.3628329514       -0.2972730750
H                -8.2070447787        1.7145016972        0.1777372465
H                -7.3865171083        1.9006709448        1.7257768083
H                -6.3097830710        3.4022858590        0.0790809320
H                -6.0689952614        2.0590652668       -1.0429455679
H                -4.7655704529        2.3919823621        1.7118345978
H                -3.9462483853        2.4895102324        0.1436336972
H                -2.0004006037       -2.9229961935       -0.0328328859
H                 0.3048163593       -0.4079115694       -2.9662399964
H                 1.7202641035       -2.6189671977       -3.6722859136
H                 2.6116877013       -1.1138915326       -3.5102702803
H                 2.6455350906       -0.9923383404        0.4884805822
H                 4.0306660319        1.0837185323        2.0866050215



