%chk=./calculation/no_transfer_pubchem_sampling_3_b3lyp/144733944.chk
%nprocshared=7
%mem=6GB
#p b3lyp/6-31g(d) opt SCF=XQC 

Gaussian input prepared by ASE

0 1
C                 8.7210249186       -2.0154403649       -0.1300609218
C                 7.5316951685       -2.3261839574        0.3467288599
C                 6.4239132144       -1.3390204657        0.5538530263
O                 5.2236231603       -1.9356127922        0.0961974088
C                 4.0685297634       -1.2436964741        0.2010338676
C                 3.9283320311        0.0365495059        0.7230452534
C                 2.6921872200        0.6635340676        0.7795264391
C                 1.5531212211        0.0081972570        0.3274988509
C                 1.6788811033       -1.2800389229       -0.1995805238
F                 0.5846358478       -1.9200353252       -0.6441343812
C                 2.9154142607       -1.8927125561       -0.2657604071
F                 3.0176914915       -3.1302273133       -0.7770553258
O                 0.3115229175        0.5626861775        0.3333936000
C                 0.0641998556        1.6577052628        1.1216191069
C                -1.1698350395        2.2156938268        1.0689544646
F                -1.3390562341        3.3300473328        1.8315080940
C                -2.3637875833        1.8423244330        0.3305602818
C                -3.4899039570        2.5473278211        0.4737587144
C                -2.3218177441        0.6585439429       -0.6152804971
C                -1.6768571893        1.0843792907       -1.9415982534
O                -3.6464139522        0.2067683013       -0.8172881502
C                -3.7513541912       -1.1555969570       -1.1557743419
C                -5.2239311455       -1.5489292959       -1.3035256585
C                -5.9074231867       -0.6659137475       -2.3525058447
C                -6.0066712961       -1.5016669609       -0.0211898530
C                -5.6179810841       -0.9836030755        1.1276297000
C                 1.1591108737        2.1672889898        1.9581835820
C                 0.9949370936        2.6353353240        3.1901075832
C                 2.5159513821        2.0559276703        1.3120811093
H                 9.4937970040       -2.7547069357       -0.2458526223
H                 8.9756508258       -1.0076328636       -0.4151572721
H                 7.2800218624       -3.3398906568        0.6217652734
H                 6.3359782314       -1.1074447711        1.6275144149
H                 6.6265064190       -0.4091015982        0.0063914614
H                 4.7884427735        0.5733634193        1.0888221537
H                -4.3761487398        2.2580785201       -0.0591007587
H                -3.5542515967        3.3975677160        1.1297561723
H                -1.7329657100       -0.1516615958       -0.1658313739
H                -0.6873822685        1.4943321508       -1.7667568396
H                -2.2998575147        1.8398944975       -2.4143333400
H                -1.5862721316        0.2304767944       -2.6078557472
H                -3.2367702963       -1.3561729973       -2.1078469646
H                -3.2760964714       -1.7779721422       -0.3808497105
H                -5.2376323342       -2.5869434853       -1.6620873682
H                -5.8556853275        0.3724799102       -2.0383126792
H                -6.9511223720       -0.9488458355       -2.4681604389
H                -5.4096589086       -0.7649577518       -3.3144408711
H                -6.9950635273       -1.9390986344       -0.1049976325
H                -6.2617104955       -0.9905291901        1.9918652380
H                -4.6560815920       -0.5200196656        1.2541375264
H                 1.8345056608        2.9943733831        3.7602586645
H                 0.0328345419        2.6875565943        3.6649625112
H                 2.5763574832        2.7682905402        0.4799467610
H                 3.3028635636        2.3049346026        2.0238816584



