%chk=./calculation/no_transfer_pubchem_sampling_3_b3lyp/146322297.chk
%nprocshared=7
%mem=6GB
#p b3lyp/6-31g(d) opt SCF=XQC 

Gaussian input prepared by ASE

0 1
O                -0.7057695046        4.1238309238       -2.6449004264
C                -1.5060911701        4.4262830067       -1.8079985604
C                -1.7385061390        3.7077675522       -0.5106617789
C                -0.7712040220        2.5504657436       -0.2912515300
C                -1.1088810102        1.7544551978        0.9745437822
N                -0.1752224746        0.6731482098        1.1567976729
C                 1.1093452141        0.9822375174        1.7328130656
C                 2.1988901159        0.3991755041        0.8874192723
N                 3.4625725567        0.3447084562        1.2021825641
C                 4.0772649399       -0.2580740346        0.1319067286
C                 5.4134910168       -0.5738372914       -0.0838478879
C                 5.7412503397       -1.1949976780       -1.2709390692
C                 4.7753472543       -1.5024325127       -2.2314085151
C                 3.4428633557       -1.1971210554       -2.0393641786
C                 3.1045840243       -0.5716956162       -0.8507517459
N                 1.9162886261       -0.1304634594       -0.3357544510
C                -0.6939982456       -0.6524790543        1.3999120614
C                -1.5675459147       -0.7851334163        2.6594508336
C                -2.2844575346       -2.1290172133        2.6592893150
C                -3.2772182203       -2.1776966151        1.5024717054
C                -2.6180671766       -1.8312381741        0.1994554905
C                -3.1911906345       -2.2030368678       -1.0122447570
C                -2.5648199581       -1.8756740085       -2.2019876189
C                -1.3622056650       -1.1910094030       -2.1338724819
N                -0.8099294051       -0.8306614754       -0.9908129465
C                -1.4166529844       -1.1246759081        0.1548769396
H                -2.1738687030        5.3025805973       -1.9452673258
H                -2.7733250695        3.3500962080       -0.5213817734
H                -1.6664673286        4.4397939607        0.2988904134
H                -0.8086163845        1.8764892508       -1.1476719356
H                 0.2461662307        2.9372247803       -0.2259956654
H                -1.1266890509        2.4323668603        1.8441008123
H                -2.1106377727        1.3328727325        0.8580017118
H                 1.2194684041        0.6122472744        2.7642388076
H                 1.2382753541        2.0669353194        1.7700254660
H                 6.1598523763       -0.3364300917        0.6574764545
H                 6.7717013982       -1.4531677633       -1.4686850574
H                 5.0815614446       -1.9900899348       -3.1456425740
H                 2.6940820366       -1.4330530038       -2.7810369387
H                 0.9757835964       -0.2330105365       -0.7181856591
H                 0.1779946804       -1.3093514110        1.5204928650
H                -2.3061124770        0.0186394197        2.6847518189
H                -0.9366143104       -0.6862951152        3.5443959582
H                -1.5529383881       -2.9326739224        2.5490207042
H                -2.8100284254       -2.2790628034        3.6041457077
H                -4.0864070475       -1.4627711700        1.6876827570
H                -3.7322548077       -3.1683199359        1.4286641819
H                -4.1244608549       -2.7493473366       -1.0157431696
H                -2.9918733505       -2.1515951309       -3.1530896251
H                -0.8147299348       -0.9169045761       -3.0260754180



