%chk=calculation/no_transfer_pubchem_sampling_3_b3lyp/146322297_rwf.chk
%rwf=calculation/no_transfer_pubchem_sampling_3_b3lyp/146322297_rwf.rwf
%nprocshared=14
%mem=3GB
#p b3lyp/6-31g(d) 6D 10F nosymm GFInput td=(50-50,nstate=2) SCF=XQC 

Gaussian input prepared by ASE

0 1
O                -0.7264588961        4.9851860832       -2.1591874279
C                -1.6625319979        5.0022010891       -1.3912416882
C                -1.9177708676        3.9689188411       -0.3167542144
C                -0.8825560203        2.8446494848       -0.2695770659
C                -1.1810389857        1.8284138811        0.8408918983
N                -0.1984182004        0.7501747383        0.8929161604
C                 1.0966126604        1.0826879364        1.4710442024
C                 2.2174221484        0.3920324000        0.7366060923
N                 3.4519678143        0.2722700799        1.1697905333
C                 4.1160310796       -0.3905252682        0.1457898396
C                 5.4554259636       -0.7895445865        0.0517623556
C                 5.8612367251       -1.4627297359       -1.0966249885
C                 4.9578870502       -1.7407263612       -2.1424591061
C                 3.6223553777       -1.3514119820       -2.0720456073
C                 3.2208661031       -0.6736566952       -0.9187096430
N                 2.0110022475       -0.1441976643       -0.5119118679
C                -0.6996461500       -0.5858658843        1.2232985210
C                -1.5041098091       -0.6750716201        2.5386687880
C                -2.1895452448       -2.0369513631        2.6849345197
C                -3.2132721751       -2.2278473599        1.5595451082
C                -2.6159885369       -1.9647093631        0.1905570695
C                -3.2059513967       -2.4973534735       -0.9620965872
C                -2.6350911943       -2.2689225365       -2.2086564210
C                -1.4607785960       -1.5180268927       -2.2600948617
N                -0.8811939894       -0.9973299084       -1.1762417447
C                -1.4498544966       -1.1948502804        0.0281745728
H                -2.4188406869        5.8192875319       -1.4394056051
H                -2.9354932751        3.5771495377       -0.4782286408
H                -1.9757588055        4.5073641343        0.6434945152
H                -0.8534124824        2.3196608590       -1.2299076781
H                 0.1123030688        3.2848891390       -0.1358615746
H                -1.2818415200        2.3523011598        1.8106479463
H                -2.1584565392        1.3755157053        0.6360653549
H                 1.1831544336        0.8495714420        2.5460155353
H                 1.2423564482        2.1656945100        1.3876620423
H                 6.1477354806       -0.5740158408        0.8602748065
H                 6.8955852402       -1.7821185784       -1.1931926810
H                 5.3114358942       -2.2685684969       -3.0242543566
H                 2.9286824469       -1.5637953336       -2.8809293911
H                 1.0876033077       -0.2444718865       -0.9414447356
H                 0.1947115582       -1.2119210539        1.3515227304
H                -2.2707554591        0.1106597856        2.5611460937
H                -0.8311626143       -0.4820952250        3.3823126885
H                -1.4397105194       -2.8391429624        2.6433391336
H                -2.6848722083       -2.1176578744        3.6596027532
H                -4.0602537763       -1.5444505185        1.7246678792
H                -3.6346235872       -3.2406455283        1.5841229913
H                -4.1099398235       -3.0964100136       -0.8727157949
H                -3.0739000345       -2.6726105399       -3.1159764956
H                -0.9611481594       -1.3310015114       -3.2088999545



