%chk=calculation/no_transfer_pubchem_sampling_3_b3lyp/150969109_rwf.chk
%rwf=calculation/no_transfer_pubchem_sampling_3_b3lyp/150969109_rwf.rwf
%nprocshared=14
%mem=3GB
#p b3lyp/6-31g(d) 6D 10F nosymm GFInput td=(50-50,nstate=2) SCF=XQC 

Gaussian input prepared by ASE

0 1
C                 8.5317851065        1.2251112863       -2.1590495635
C                 7.2445279926        0.5610788370       -1.7339032460
C                 7.1339103406       -0.0538795738       -0.4786342436
C                 5.9417110666       -0.6455083658       -0.0675337360
C                 4.8464227568       -0.6179112171       -0.9311919597
S                 3.3207420576       -1.3774193108       -0.4253178645
O                 2.5204437469       -1.7396270685       -1.5913140489
O                 3.5730136159       -2.3485923150        0.6372909056
O                 2.6274941340       -0.0113508753        0.2755743548
C                 1.3000061868       -0.1365663824        0.6936279927
C                 0.9888332282       -0.8073442002        1.8761482511
C                -0.3339577846       -0.8650955703        2.3038826410
C                -1.3518718396       -0.2649150252        1.5531588963
O                -2.6602730075       -0.2788201632        1.9850031437
S                -3.4696055499       -1.7335174759        2.3042931767
O                -2.6442586100       -2.5238106245        3.2153914287
O                -4.7901275863       -1.2633347787        2.6825232313
C                -3.5217263834       -2.5489450179        0.7243308213
C                -2.6059089070       -3.5674464882        0.4521712779
C                -2.6634729494       -4.2082909557       -0.7833542814
C                -3.6178904326       -3.8461825489       -1.7438153877
C                -3.6518217816       -4.5215802062       -3.0931708922
C                -4.5293911157       -2.8249102210       -1.4339325553
C                -4.4898489456       -2.1683841753       -0.2084523104
C                -1.0164540645        0.4292398133        0.3756687043
S                -2.2010205381        1.3184126213       -0.6452614093
O                -1.5799288663        1.5801572701       -1.9373080605
O                -3.5258159474        0.7272653902       -0.5494724262
O                -2.2094255913        2.8404452344        0.0393717717
N                -2.6257358809        2.7777129950        1.4203225281
C                -3.0693541619        3.9290374390        1.7770593208
C                -3.2325557966        5.1661107637        1.0085597021
C                -3.7306956210        6.1867766814        1.7169835256
C                -4.0362339178        5.9164803606        3.1601112812
S                -3.5885570858        4.1544875532        3.4674954515
C                 0.3104863018        0.4861402035       -0.0572776913
C                 4.9254103884       -0.0236105099       -2.1921289123
C                 6.1266097623        0.5613281857       -2.5822385405
H                 8.7050523391        1.1115461331       -3.2342101619
H                 8.5040306861        2.3019187347       -1.9462700954
H                 9.3931320634        0.8086081904       -1.6278094202
H                 7.9946222741       -0.0751853783        0.1847016614
H                 5.8612116632       -1.1325380041        0.8981972905
H                 1.7794722494       -1.2731636563        2.4533061515
H                -0.5966867782       -1.3749765587        3.2217925826
H                -1.8771118439       -3.8597573894        1.1996188986
H                -1.9560875639       -5.0036306392       -1.0026609865
H                -4.6780097988       -4.6369335419       -3.4577271734
H                -3.1865320307       -5.5115576433       -3.0590710038
H                -3.1069154144       -3.9274385065       -3.8384355549
H                -5.2792321900       -2.5359371820       -2.1656239884
H                -5.1885254494       -1.3735974501        0.0232479406
H                -2.9660534631        5.1981421590       -0.0400858994
H                -3.9219950754        7.1723351998        1.3014607503
H                -3.4572143684        6.5651032437        3.8281224581
H                -5.0983440730        6.0697997406        3.3849298261
H                 0.5636298398        1.0075671734       -0.9721023719
H                 4.0661902314       -0.0342910335       -2.8541322531
H                 6.1999013826        1.0212388437       -3.5643969285



