%chk=./calculation/no_transfer_pubchem_sampling_3_b3lyp/154262499.chk
%nprocshared=7
%mem=6GB
#p b3lyp/6-31g(d) opt SCF=XQC 

Gaussian input prepared by ASE

0 1
C                -7.6020805888        0.8677594618       -1.3738290925
N                -6.7562862572        0.2900686356       -0.3509466118
C                -7.3585286379        0.4029995375        0.9603415312
C                -6.3802879302       -1.0794278031       -0.6383420213
C                -5.4662521950       -1.1829041307       -1.8680714080
O                -4.4666844283       -0.1888513870       -1.8941637065
C                -3.4906706100       -0.1854040804       -0.9551810924
C                -3.1553548079       -1.2563948735       -0.1301257288
C                -2.1142138539       -1.1369667085        0.7711798828
C                -1.3658585317        0.0305383961        0.8511283127
C                -0.3150294078        0.1421940353        1.8954723296
O                -0.5514109384       -0.0873651321        3.0614592442
N                 0.9545780373        0.5404510887        1.4801487481
C                 1.8492646205        0.8659355684        2.4527605873
C                 3.2007090226        1.0150805438        2.3863383705
C                 3.7687837401        1.4563481492        3.6761184661
O                 3.1169769708        1.8920231507        4.5954802681
O                 5.1101551211        1.3254447143        3.8064334136
C                 4.0527712833        0.7241281939        1.2504933626
N                 5.3456327075        1.1793145948        1.1926889540
C                 5.9368113292        0.7428547792        0.0526675617
C                 7.2351215339        0.9572460421       -0.3926872151
C                 7.5973734152        0.4041529074       -1.5990489053
C                 6.6791883756       -0.3449679948       -2.3391317110
C                 5.3919971270       -0.5573364836       -1.9022230431
C                 4.9812960836       -0.0101197036       -0.6797756586
C                 3.7848552788       -0.0089153377        0.1024450180
C                 2.4363283990       -0.6058117232       -0.1856668934
C                 2.2666716124       -1.0276346771       -1.6465859846
C                 2.1965475553       -1.8343014700        0.7021129959
C                 1.3634764860        0.4842509991        0.0990698797
C                -1.7048809026        1.1054672929        0.0280885996
C                -2.7517231152        0.9979648301       -0.8586408232
H                -7.8676423193        1.8808665052       -1.0778887328
H                -8.5295088265        0.2932642674       -1.5315636008
H                -7.0536955787        0.9222435312       -2.3113160782
H                -7.5675783173        1.4517570697        1.1633245183
H                -8.2976802986       -0.1662030383        1.0495575134
H                -6.6580240750        0.0409857842        1.7118773744
H                -7.2568620457       -1.7329819075       -0.8115445643
H                -5.8475814181       -1.4538106548        0.2390643932
H                -5.0324107863       -2.1903337153       -1.9178528455
H                -6.0356170537       -1.0160549435       -2.7851571194
H                -3.6950569361       -2.1888569242       -0.1799816763
H                -1.8680184468       -1.9631176764        1.4215035561
H                 1.3853951525        1.0266202108        3.4195156491
H                 5.3555004127        1.5851629172        4.7082933448
H                 5.8060993659        1.6800468375        1.9324510944
H                 7.9302343365        1.5367935754        0.1968135120
H                 8.5978535583        0.5454171763       -1.9798164120
H                 6.9927758999       -0.7695294716       -3.2818756733
H                 4.7275177356       -1.1438146116       -2.5128978977
H                 2.4984938233       -0.2045009860       -2.3174555934
H                 1.2388683023       -1.3410625094       -1.8235702572
H                 2.9110690398       -1.8704710862       -1.8745606374
H                 1.1779279997       -2.1984965052        0.5772772780
H                 2.3593178423       -1.6066387738        1.7520242522
H                 2.8864100905       -2.6260610114        0.4198818725
H                 1.7615106930        1.4598137321       -0.1954163588
H                 0.4811690732        0.2725185262       -0.5037224341
H                -1.1593845658        2.0347476558        0.1047463265
H                -3.0303601520        1.8238726107       -1.4930614341



