%chk=calculation/no_transfer_pubchem_sampling_3_b3lyp/154262499_rwf.chk
%rwf=calculation/no_transfer_pubchem_sampling_3_b3lyp/154262499_rwf.rwf
%nprocshared=14
%mem=3GB
#p b3lyp/6-31g(d) 6D 10F nosymm GFInput td=(50-50,nstate=2) SCF=XQC 

Gaussian input prepared by ASE

0 1
C                -8.1741046463        0.8796539677       -1.5547402295
N                -7.2589496227        0.6566570945       -0.4440215982
C                -7.8646575454        1.0465917244        0.8226584862
C                -6.7440449446       -0.7045487762       -0.3872559789
C                -5.8004992360       -1.0640508099       -1.5376660933
O                -4.6791929071       -0.1869947152       -1.6545612854
C                -3.6321607023       -0.2865332964       -0.7971768987
C                -3.4491633996       -1.3080119863        0.1486131392
C                -2.3142034358       -1.3061672489        0.9539111882
C                -1.3267128881       -0.3208897206        0.8233299251
C                -0.2014288366       -0.3413294010        1.8007942207
O                -0.3755231795       -0.7083399822        2.9522573044
N                 1.0839483945        0.1217469656        1.3844505793
C                 1.9221168070        0.5130911391        2.3960015055
C                 3.2571992424        0.8221866901        2.3849154609
C                 3.6923986596        1.3085066450        3.7240926559
O                 2.9703765490        1.5006619716        4.6844443730
O                 5.0387658370        1.5430096112        3.8429580896
C                 4.1814850136        0.6643279056        1.2577348212
N                 5.4160005423        1.2946995703        1.2419566528
C                 6.0896470444        0.9846521016        0.0920188229
C                 7.3697159300        1.3829482030       -0.3090450392
C                 7.8299197698        0.9353766760       -1.5386904618
C                 7.0224530367        0.1085332313       -2.3449497917
C                 5.7542188508       -0.2854845584       -1.9407944388
C                 5.2467800208        0.1431960386       -0.6919373418
C                 4.0324731781       -0.0551106356        0.0712217129
C                 2.7804154988       -0.8428625901       -0.2759004960
C                 2.7123779823       -1.2173434624       -1.7718178940
C                 2.6992588533       -2.1494044919        0.5467281599
C                 1.5201190387        0.0441440807       -0.0160422161
C                -1.5282234414        0.7044459569       -0.1190413431
C                -2.6644578012        0.7260260258       -0.9127709411
H                -8.5103708861        1.9213574412       -1.5417218105
H                -9.0718469054        0.2297233952       -1.5170706722
H                -7.6703403779        0.7122496396       -2.5113840865
H                -8.1691571686        2.0974519616        0.7737528997
H                -8.7575173353        0.4455988206        1.0876775679
H                -7.1330661018        0.9437398496        1.6311156032
H                -7.5538609327       -1.4666025627       -0.3811573233
H                -6.2050974329       -0.8145918375        0.5599589970
H                -5.4718913686       -2.1061340715       -1.4329635369
H                -6.3047477864       -0.9811652909       -2.5031294511
H                -4.1805906181       -2.0982336009        0.2700890860
H                -2.1836944134       -2.0771796633        1.7065171552
H                 1.4172088075        0.5910297493        3.3502878291
H                 5.1536818995        1.8483634515        4.7621224062
H                 5.7995465888        1.7681672162        2.0454134449
H                 7.9776592050        2.0237832346        0.3245828111
H                 8.8188077931        1.2253342129       -1.8829905320
H                 7.4004511529       -0.2295808877       -3.3061800877
H                 5.1730853786       -0.9188428332       -2.5981844869
H                 2.8001740723       -0.3397138568       -2.4213724942
H                 1.7579186815       -1.7104387697       -1.9900617000
H                 3.5048941984       -1.9215369490       -2.0352490619
H                 1.7625934762       -2.6846100799        0.3412175299
H                 2.7556226200       -1.9639136622        1.6223410110
H                 3.5325841107       -2.8069127098        0.2779511914
H                 1.7079188019        1.0529080703       -0.3991166383
H                 0.6842669458       -0.3747811787       -0.5731553335
H                -0.8050681830        1.5090632825       -0.2123352630
H                -2.8355128843        1.5220817050       -1.6299731048



