%chk=./calculation/no_transfer_pubchem_sampling_3_b3lyp/157170558.chk
%nprocshared=7
%mem=6GB
#p b3lyp/6-31g(d) opt SCF=XQC 

Gaussian input prepared by ASE

0 1
C                -1.4685105268        1.4290002926       -1.9686616215
C                -2.8443939074        1.6788645225       -1.3487853199
C                -3.9287738553        1.6109840131       -2.4346218789
C                -5.3122261952        1.3750000975       -1.8329705486
C                -5.4892829897       -0.0879146262       -1.4370116134
C                -6.5185513749       -0.3297358869       -0.3883095969
C                -7.5872698500       -1.1866256855       -0.6185237918
C                -8.5242527319       -1.4256943029        0.3716685504
C                -8.3976505414       -0.8177431541        1.6080311275
C                -7.3288232849        0.0294768099        1.8497976266
C                -6.3968325177        0.2736128567        0.8586572572
S                -3.8652005083       -0.6847284478       -0.8058837451
O                -3.1526684873       -1.2543658553       -1.9197935146
O                -4.0500272562       -1.5243934663        0.3415349757
N                -3.1929271442        0.7403039701       -0.2992874258
C                -2.5469819431        0.8108624520        0.9921798018
C                -1.1070973441        0.3704155079        0.9882620287
C                -0.7458352833       -0.8970859190        0.5436032655
C                 0.5694826412       -1.3054905032        0.5171166875
C                 1.6045935664       -0.4535240242        0.9326107508
N                 2.9121239367       -0.8640129591        0.9278100112
C                 3.9460832080       -0.1063029800        1.5993203832
C                 5.1648122959       -1.0006753931        1.7911036570
N                 5.7201675909       -1.3209384962        0.4893422963
C                 7.0097543109       -1.0237475600        0.2550496413
O                 7.7804050034       -0.7006398665        1.1474389486
C                 7.4826241101       -1.0133112702       -1.1725154676
S                 7.2786244021        0.7509441724       -1.6392161409
C                 8.6072168490        1.5953891106       -0.7580212632
O                 7.4859216265        0.8702248737       -3.0552404814
O                 6.0073531726        1.1909224908       -1.1259370818
C                 4.7342313315       -1.5744437346       -0.5476562489
C                 3.3821906861       -1.9285350171        0.0738293312
C                 1.2511244184        0.8205567158        1.3905623553
C                -0.0759007421        1.1960116562        1.4086648460
F                -0.3663523784        2.4473257892        1.8506810183
H                -1.4064953857        0.3940251752       -2.2944792756
H                -1.3304764195        2.0838990895       -2.8259242658
H                -0.6740391467        1.6205898970       -1.2535162020
H                -2.8581107287        2.6765817788       -0.8860034641
H                -3.9167440127        2.5455033551       -2.9979713281
H                -3.6932415492        0.7949464274       -3.1187181188
H                -5.4392786091        2.0129530773       -0.9564923499
H                -6.0885114563        1.6433820716       -2.5540251674
H                -5.6662076345       -0.7065956751       -2.3175068822
H                -7.6855514370       -1.6698248288       -1.5801008158
H                -9.3513752553       -2.0926295519        0.1779729654
H                -9.1251553452       -1.0077058371        2.3830686614
H                -7.2195491705        0.4979666680        2.8167563532
H                -5.5560540618        0.9207054746        1.0568349808
H                -3.1242183071        0.1450107736        1.6400683041
H                -2.6272007353        1.8376978263        1.3636629119
H                -1.5259665305       -1.5671792992        0.2171056689
H                 0.7903645922       -2.3085282414        0.1910561025
H                 3.5764948636        0.2173214006        2.5760996940
H                 4.2480767265        0.7770887501        1.0175687720
H                 5.9400791473       -0.4864625262        2.3616891870
H                 4.8880418855       -1.9168998676        2.3219032239
H                 6.9173914777       -1.6112127692       -1.8756791497
H                 8.5442335737       -1.2291636780       -1.2361398470
H                 8.6623001222        1.1649610398        0.2352370009
H                 9.5229906528        1.4427517241       -1.3128096410
H                 8.3536321643        2.6465111952       -0.7096038705
H                 5.0556642609       -2.4157738025       -1.1690924202
H                 4.6219594384       -0.6831768757       -1.1754885262
H                 2.6721223919       -2.0810617744       -0.7414882742
H                 3.4694200348       -2.8720943233        0.6320653248
H                 1.9882581660        1.5364291435        1.7116726278



