%chk=./calculation/no_transfer_pubchem_sampling_3_b3lyp/157316242.chk
%nprocshared=7
%mem=6GB
#p b3lyp/6-31g(d) opt SCF=XQC 

Gaussian input prepared by ASE

0 1
C                -2.9084803231       -1.3521696413       -1.5090729474
C                -3.4526474838       -0.1190847322       -0.8529060045
C                -4.7935574013        0.2189305320       -0.9662388680
C                -5.2969707362        1.3584623704       -0.3631862797
C                -4.4583569857        2.1814755703        0.3672698710
C                -3.1198997203        1.8564649937        0.4928997961
C                -2.6120492482        0.7134437072       -0.1105217142
C                -1.1771574576        0.3893531114        0.0323636639
C                -0.2740547825        0.7272474911       -0.9727755341
N                 1.0151167644        0.4719332476       -0.9159407060
C                 1.4856828000       -0.1437140573        0.1648645443
C                 2.9133632375       -0.4028407694        0.1720324014
N                 3.5552957666       -0.9917971570        1.1676266511
N                 4.8287785509       -1.0528517102        0.8200953342
C                 5.0539486229       -0.5113633278       -0.4007464550
C                 6.4070964475       -0.4579788778       -1.0198647212
F                 6.4726558533       -1.1252656305       -2.1787716666
F                 6.8145777409        0.7930540289       -1.2669831327
F                 7.3272026688       -1.0095830313       -0.2046830902
C                 3.8268272337       -0.0687399333       -0.8711823984
C                 3.5471829395        0.5607332601       -2.0949012840
N                 3.3679480729        1.0699003471       -3.1050362330
C                 0.6733687775       -0.5227287811        1.2318254774
C                -0.6857058302       -0.2553288878        1.1737374352
C                -1.6051395267       -0.6399651393        2.2885049804
H                -2.1799456989       -1.0859782727       -2.2742818401
H                -3.7061537097       -1.9249570865       -1.9753061700
H                -2.4017799472       -1.9861895849       -0.7818502987
H                -5.4524839345       -0.4199748114       -1.5368117630
H                -6.3436966242        1.6035203353       -0.4650691207
H                -4.8437604317        3.0735607352        0.8378387242
H                -2.4547190059        2.4951922061        1.0568716560
H                -0.6108622373        1.2344237474       -1.8672977500
H                 5.5118930803       -1.4680166079        1.4377208544
H                 1.1160401560       -1.0178257831        2.0814983072
H                -2.4441755249       -1.2197635056        1.9066382647
H                -1.0797382324       -1.2235302496        3.0399305703
H                -2.0156448706        0.2519518944        2.7600844458



