%chk=./calculation/no_transfer_pubchem_sampling_3_b3lyp/1721736.chk
%nprocshared=7
%mem=6GB
#p b3lyp/6-31g(d) opt SCF=XQC 

Gaussian input prepared by ASE

0 1
C                 0.9638607394        3.1496549574        2.5822134803
C                 1.8587391576        2.4420847888        1.8841259792
N                 2.5840532657        1.3944548162        2.4787998494
N                 2.7178575482        0.1915402597        1.7647530960
C                 2.0895488784       -0.9266526350        2.1574360054
O                 1.4074866072       -0.9892010723        3.1682636883
C                 2.3559695221       -2.1204780303        1.2276546436
N                 1.5320868557       -2.1196687276        0.0360905559
C                 0.2012182763       -2.5646638687        0.0770106601
C                -0.4700900521       -2.7814063599       -1.1231361667
C                -1.7999054235       -3.1706776323       -1.1286896893
C                -2.5168932074       -3.4000468357       -2.4244977615
C                -2.4594843426       -3.3562970727        0.0791902218
C                -1.8010298794       -3.1632863552        1.2842588741
C                -2.5143031829       -3.3805999467        2.5851719749
C                -0.4716731345       -2.7628974758        1.2791427546
S                 1.9692160923       -1.1041868060       -1.2309252425
O                 3.1817142706       -0.4393314856       -0.8157046782
O                 2.0568752972       -1.8261654722       -2.4625374573
C                 0.6248105912        0.0687857174       -1.3419938125
C                 0.3314199316        0.6219698850       -2.5648489915
C                -0.7332644741        1.5082073820       -2.6731663733
C                -1.5151700499        1.8116568215       -1.5694792298
O                -2.5808146288        2.6421580591       -1.5730212674
C                -2.9110927602        3.3120553745       -2.7668919303
C                -1.2119333549        1.2214294481       -0.3142661322
O                -2.0360933885        1.5398867926        0.7044966044
C                -1.8295143944        0.9132472814        1.9526206135
C                -0.1230081325        0.3737322301       -0.2145055131
C                 2.2282174356        2.7697057695        0.5166976019
C                 3.3952629398        2.4956017629       -0.1420079518
C                 3.4040777084        2.9642221063       -1.4703163111
C                 2.2499433648        3.5921475332       -1.8103829078
S                 1.1292232982        3.6374709798       -0.5101650284
H                 0.5029904403        4.0269288609        2.1679145838
H                 0.7110898808        2.8925134291        3.5960529608
H                 2.2286797580        1.1633178536        3.4062714916
H                 3.1622036588        0.2346117778        0.8483262789
H                 3.3948225955       -2.0921395395        0.8952153306
H                 2.1752312672       -3.0474675206        1.7768305663
H                 0.0556550256       -2.6517986694       -2.0535476112
H                -2.6849240774       -4.4661360121       -2.5759428444
H                -3.4875826460       -2.9075244706       -2.4173357293
H                -1.9334485280       -3.0221450885       -3.2595950261
H                -3.4977417343       -3.6556870125        0.0800013231
H                -3.5320802545       -2.9987830013        2.5365053252
H                -2.5683796562       -4.4469125070        2.8051067314
H                -1.9896749845       -2.8915124106        3.4020435328
H                 0.0182680676       -2.5862840399        2.2229978676
H                 0.9262792204        0.3540677615       -3.4220848000
H                -0.9503368380        1.9465446210       -3.6332334640
H                -2.0877724181        3.9454775880       -3.1108191130
H                -3.1890357799        2.6101762003       -3.5594635709
H                -3.7685461544        3.9365238673       -2.5224446874
H                -2.6369862457        1.2668462908        2.5908956067
H                -1.8794831311       -0.1764777094        1.8665991912
H                -0.8699345043        1.2026953810        2.3903778502
H                 0.1355428887       -0.0652229081        0.7324484740
H                 4.2367572392        2.0063744805        0.3131254458
H                 4.2343588881        2.8326512910       -2.1396963650
H                 1.9867366477        4.0449072972       -2.7454735076



