%chk=calculation/no_transfer_pubchem_sampling_3_b3lyp/1721736_rwf.chk
%rwf=calculation/no_transfer_pubchem_sampling_3_b3lyp/1721736_rwf.rwf
%nprocshared=14
%mem=3GB
#p b3lyp/6-31g(d) 6D 10F nosymm GFInput td=(50-50,nstate=2) SCF=XQC 

Gaussian input prepared by ASE

0 1
C                 1.7960518937        2.5986432418        3.6263922911
C                 2.4922737808        2.2263485095        2.5361365437
N                 3.2175250932        0.9987142629        2.5082818395
N                 2.8180780342        0.0649387922        1.5190703553
C                 2.3500738042       -1.1446338891        1.9217381042
O                 2.0850389247       -1.3925003230        3.0995538294
C                 2.2270616830       -2.2087074600        0.8169113629
N                 1.1593836383       -1.9772851874       -0.1719099447
C                -0.1168690492       -2.6060229635        0.0033862386
C                -0.8217852766       -3.1578086022       -1.0708646837
C                -2.0784095099       -3.7418790089       -0.8639263008
C                -2.8512977074       -4.2998522064       -2.0371806107
C                -2.5988902331       -3.7983310771        0.4305933255
C                -1.8933986851       -3.2754912219        1.5220520954
C                -2.4537846521       -3.3807123041        2.9221452090
C                -0.6574734655       -2.6646023694        1.2983784615
S                 1.5856691830       -1.1868107418       -1.6115181058
O                 2.8526868293       -0.5028177314       -1.2839968671
O                 1.5882040491       -2.0900847976       -2.7683485108
C                 0.2607292367       -0.0127407353       -1.8388320990
C                -0.1842032379        0.2259092875       -3.1317354416
C                -1.1712912280        1.1950250389       -3.3392945509
C                -1.7164736054        1.8972137167       -2.2648796137
O                -2.6850027560        2.8392978168       -2.3629436709
C                -3.1910952110        3.1530195716       -3.6526094218
C                -1.2639104326        1.6280062621       -0.9416168389
O                -1.8801226528        2.3286668382        0.0414582448
C                -1.6092338984        1.9620913973        1.3906946965
C                -0.2594301834        0.6892438580       -0.7406719933
C                 2.6965682303        3.0661713430        1.3514228181
C                 3.7476612383        3.0275831110        0.4629731927
C                 3.6484051331        3.9982966710       -0.5746552317
C                 2.5211856500        4.7666839055       -0.4736682627
S                 1.5540325525        4.3098182339        0.8907054585
H                 1.4116484000        3.6069187539        3.7369455939
H                 1.6410690268        1.9127966489        4.4537483451
H                 3.1269315223        0.5018015077        3.3947843068
H                 3.1982941563        0.1810043643        0.5844815212
H                 3.1838834626       -2.3029594370        0.2971207561
H                 2.0141698354       -3.1537772056        1.3181755660
H                -0.3906206217       -3.1490397450       -2.0650309618
H                -2.1913242556       -4.8187658992       -2.7411016042
H                -3.6213690934       -5.0058461763       -1.7100891974
H                -3.3539506187       -3.4997398633       -2.5966800075
H                -3.5685663176       -4.2639846586        0.5959825286
H                -3.5262539674       -3.1555225471        2.9420828226
H                -2.3302947509       -4.3958405205        3.3219006464
H                -1.9485746014       -2.6952400205        3.6095857313
H                -0.1068104647       -2.2480977065        2.1367100416
H                 0.2207930420       -0.3388981598       -3.9631645137
H                -1.5197789380        1.3843579002       -4.3475591944
H                -2.4028445076        3.5427569240       -4.3095223088
H                -3.6578551665        2.2787483875       -4.1244709560
H                -3.9454749169        3.9250443592       -3.4938728778
H                -2.2744138805        2.5761796655        1.9999343234
H                -1.8280082850        0.9001850973        1.5616733021
H                -0.5695549465        2.1698923506        1.6684335481
H                 0.1102516068        0.4830322473        0.2550660729
H                 4.5798319762        2.3421479929        0.5759737584
H                 4.3863015083        4.1184865170       -1.3602477821
H                 2.1945636259        5.5689659838       -1.1216353796



