%chk=calculation/no_transfer_pubchem_sampling_3_b3lyp/17349516_rwf.chk
%rwf=calculation/no_transfer_pubchem_sampling_3_b3lyp/17349516_rwf.rwf
%nprocshared=14
%mem=3GB
#p b3lyp/6-31g(d) 6D 10F nosymm GFInput td=(50-50,nstate=2) SCF=XQC 

Gaussian input prepared by ASE

0 1
C                -1.6901846025        0.8450034234       -3.3478145080
O                -1.9577259776        0.7100955817       -1.9606457959
C                -0.8942580818        0.6114032932       -1.1162977681
C                 0.4361492178        0.6231993161       -1.5031768796
C                 1.4668930745        0.5146918876       -0.5442745708
C                 2.8766690246        0.5193071890       -0.9296571171
N                 3.2317632198        0.6256053026       -2.1601960026
N                 4.5666010362        0.5588717671       -2.5179561942
S                 5.8946877900        1.1881347951       -1.6016704831
O                 6.8787164077        1.5128172586       -2.6381420458
O                 5.4496485048        2.1621753257       -0.6043162058
C                 6.4860165733       -0.2610219814       -0.7108842762
C                 7.0658154283       -1.3134514082       -1.4261069032
C                 7.5491733096       -2.4234757629       -0.7347208003
C                 7.4609119915       -2.4793096389        0.6568325432
C                 6.8853849968       -1.4087305700        1.3359352764
N                 6.7905651123       -1.4634360642        2.8072874382
O                 6.2509286603       -0.5170568188        3.3762500229
O                 7.2538045911       -2.4541944590        3.3687718784
C                 6.3936498436       -0.2844381581        0.6765025785
C                 1.1308710224        0.3974774169        0.8045940721
C                -0.2084083896        0.3844835059        1.2074807771
C                -1.2270673529        0.4894483717        0.2632945752
O                -2.5555631896        0.4880349399        0.5385900665
C                -2.9779253134        0.3771354277        1.8899125625
C                -4.4760556849        0.3976941522        1.9549064451
C                -5.2859739031        0.5071843798        0.8936424894
C                -6.7565330688        0.5323880955        0.8975692027
C                -7.4288751072        0.6771716600       -0.3285847248
C                -8.8212367172        0.7094043181       -0.3920605647
C                -9.5768291923        0.5963085479        0.7750112209
C                -8.9250949045        0.4505526118        2.0035598617
C                -7.5352550738        0.4187055678        2.0645677346
H                -2.6653064751        0.9114662564       -3.8334257471
H                -1.1462620958       -0.0245947090       -3.7395393099
H                -1.1140535172        1.7551564466       -3.5598920514
H                 0.7136246354        0.7170229607       -2.5455045104
H                 3.5931553598        0.4314040177       -0.1110519400
H                 4.6879399375        0.9138971680       -3.4646438065
H                 7.1395793867       -1.2571080157       -2.5068912735
H                 7.9990560415       -3.2473605742       -1.2794919324
H                 7.8288680230       -3.3289883817        1.2185949175
H                 5.9641231120        0.5413626086        1.2300497359
H                 1.9132080191        0.3177148641        1.5547603696
H                -0.4461655526        0.2936411050        2.2606623276
H                -2.5903021979       -0.5568963132        2.3297115065
H                -2.5587826770        1.2061320441        2.4840675721
H                -4.8718738727        0.3149056961        2.9659530641
H                -4.8202399775        0.5887885450       -0.0858201414
H                -6.8449070742        0.7660003994       -1.2417577226
H                -9.3149079287        0.8228318312       -1.3537077066
H               -10.6622778013        0.6206065728        0.7309469059
H                -9.5048320126        0.3607142700        2.9186606020
H                -7.0509065776        0.3029039341        3.0301132353



