%chk=calculation/no_transfer_pubchem_sampling_3_b3lyp/18160780_rwf.chk
%rwf=calculation/no_transfer_pubchem_sampling_3_b3lyp/18160780_rwf.rwf
%nprocshared=14
%mem=3GB
#p b3lyp/6-31g(d) 6D 10F nosymm GFInput td=(50-50,nstate=2) SCF=XQC 

Gaussian input prepared by ASE

0 1
C                -4.7342848244       -2.0102339097        0.5448567068
C                -4.0240438852       -1.5056958935       -0.7288493297
C                -2.9312592340       -2.4841927646       -1.1833058611
N                -3.4984206134       -0.1264112742       -0.6445712783
C                -2.4120118869        0.0415769350        0.3296162420
C                -1.0841416999        0.4280245269       -0.3493041995
N                -0.0186561658        0.6885110146        0.6145770432
C                 0.1010939018        1.8823160352        1.2402151788
O                -0.6646696788        2.8316743767        1.0947545913
C                 1.3131418655        1.9964814600        2.1878290808
N                 2.5996039795        2.0631357384        1.4744807746
C                 3.1372702743        3.2814339347        1.1564108961
N                 4.2672917853        3.4603420204        0.5407682247
C                 4.9238520798        2.3157090537        0.2180564977
S                 6.4435419106        2.3495019645       -0.6351681005
C                 6.5044241509        0.6115739502       -0.6224247778
C                 5.4262152429        0.0106531949       -0.0195943576
C                 5.3236764653       -1.4537005158        0.0325911549
C                 5.6680641508       -2.3183634226       -0.9840668913
C                 5.6051371254       -3.6908647714       -0.6132660480
C                 5.2223428557       -3.8635563303        0.6895660440
S                 4.9122926918       -2.3536761987        1.4760286759
C                 4.5030620755        1.0092595079        0.4784769774
C                 3.2197909704        0.8341185544        1.1229400640
O                 2.6482226586       -0.2284784072        1.3765280239
C                -4.5070947999        0.9567988337       -0.5668994044
C                -3.8595043395        2.3168216589       -0.8790222805
C                -5.6817832329        0.7431592124       -1.5323158646
H                -5.1700658549       -3.0021523614        0.3752250315
H                -5.5450555249       -1.3365385027        0.8440995196
H                -4.0420063631       -2.0964141075        1.3907760653
H                -4.7645531941       -1.4956440739       -1.5330625148
H                -2.1505835737       -2.6224872805       -0.4260845591
H                -3.3682230791       -3.4700133843       -1.3799297521
H                -2.4578577732       -2.1263479271       -2.1035299106
H                -2.2519619588       -0.8789917678        0.9029177220
H                -2.6617564249        0.8131542647        1.0682849075
H                -1.2303221827        1.3234896456       -0.9574855395
H                -0.7531140702       -0.3765502999       -1.0118859581
H                 0.6935045723       -0.0116013290        0.8026838261
H                 1.1886307848        2.9148360454        2.7615043811
H                 1.3630519029        1.1403575138        2.8641122585
H                 2.5483826020        4.1448789188        1.4534048190
H                 7.3615413764        0.1049223922       -1.0441520005
H                 5.9398056860       -1.9707628148       -1.9751372332
H                 5.8225294959       -4.5106451291       -1.2893079214
H                 5.0721445581       -4.7911542945        1.2261375227
H                -4.9248972678        1.0163433484        0.4581082340
H                -3.0297414763        2.5630668738       -0.2107119077
H                -4.6068042176        3.1127318529       -0.7802732535
H                -3.4837652343        2.3256383800       -1.9094468345
H                -5.3187446394        0.5887170184       -2.5555773754
H                -6.3189405962       -0.1031750129       -1.2583993173
H                -6.3143523705        1.6371605474       -1.5311789925



