%chk=./calculation/no_transfer_pubchem_sampling_3_b3lyp/19937471.chk
%nprocshared=7
%mem=6GB
#p b3lyp/6-31g(d) opt SCF=XQC 

Gaussian input prepared by ASE

0 1
C                -3.1631553493       -4.4447075457        0.0151203338
C                -1.9240775243       -3.6098771927       -0.0827022612
C                -0.6797833215       -4.2300978161       -0.2406221752
C                 0.4637682842       -3.4765890606       -0.3266857644
C                 0.4055297187       -2.0799236806       -0.2611611391
C                 1.6619815838       -1.3484902719       -0.3516802549
O                 2.7552531993       -1.8704292137       -0.4672457345
N                 1.5394775193        0.0456091825       -0.2752483276
C                 2.7059939711        0.8472327693       -0.3042087582
C                 3.6903988433        0.6385669005       -1.2632602258
C                 4.8240468578        1.4318411175       -1.2729215423
C                 4.9891751622        2.4448197062       -0.3441333045
C                 3.9958873371        2.6369417417        0.5983118418
F                 4.1365196552        3.6213600990        1.5119889535
C                 2.8588201974        1.8548550980        0.6423727429
C                 0.3356697558        0.6575641677       -0.1171670875
C                -0.8493602232        0.0015792489       -0.0346661682
C                -2.0822910243        0.8161431294        0.1064000906
O                -3.2091737260        0.3673780410       -0.1125150289
N                -1.8058315094        2.0924264063        0.4974107776
C                -2.7650997662        2.9592294525        0.7029563463
N                -4.0667777934        2.7290837341        0.4853112523
N                -2.3998032382        4.1702815802        1.1883577042
C                -0.8394719864       -1.4397386108       -0.1060571377
C                -1.9883645163       -2.2329738049       -0.0156178847
H                -3.2608734340       -5.0808227143       -0.8636844501
H                -3.1122226427       -5.0932234820        0.8893031936
H                -4.0481147338       -3.8193187275        0.0951189255
H                -0.6260163222       -5.3079513195       -0.2928341776
H                 1.4336515000       -3.9360924751       -0.4447799853
H                 3.5704210652       -0.1469528590       -1.9903961369
H                 5.5862647315        1.2619409571       -2.0172558330
H                 5.8648773222        3.0735546540       -0.3388504560
H                 2.1184689444        2.0207595470        1.4093052325
H                 0.3473527459        1.7357079630       -0.0865911831
H                -4.2753537767        1.7663178558        0.2121538836
H                -4.7816395841        3.3796444975        0.7572413602
H                -1.4166367820        4.3715199601        1.2192460097
H                -3.0467200822        4.9386924073        1.1800715040
H                -2.9427890582       -1.7458634422        0.0996128647



