%chk=calculation/no_transfer_pubchem_sampling_3_b3lyp/20127338_rwf.chk
%rwf=calculation/no_transfer_pubchem_sampling_3_b3lyp/20127338_rwf.rwf
%nprocshared=14
%mem=3GB
#p b3lyp/6-31g(d) 6D 10F nosymm GFInput td=(50-50,nstate=2) SCF=XQC 

Gaussian input prepared by ASE

0 1
C                -2.9271580427       -1.8800765532        2.1570816537
C                -2.6306152858       -1.1013678498        0.8742395512
N                -1.2731297673       -0.5441958670        0.8359011436
C                -0.8557245312        0.7399781268        1.1245653366
C                -1.7432423472        1.8867333027        1.5277820691
C                -2.2957362984        1.8144323405        2.9262312226
C                -3.5946943411        1.5897175865        3.3465541370
C                -3.6009571811        1.6045841023        4.7681791580
C                -2.3054168733        1.8417098417        5.1710332229
N                -1.5090588360        1.9619902204        4.0548083137
C                -0.1075002617        2.3595679576        4.0857558954
N                 0.4474765648        0.8314230098        0.9973571752
N                 0.9222256778       -0.4105753832        0.6171331592
C                -0.1160016332       -1.2138367669        0.5238457546
S                -0.1082367556       -2.9094290909        0.0368797421
C                 1.7071454712       -3.2116485049       -0.0816417208
C                 2.3265881305       -2.8111825384       -1.4293866279
O                 2.5137370848       -3.6487727424       -2.3048148599
N                 2.6643983865       -1.4987182933       -1.5181446688
C                 3.1746693277       -0.9073381555       -2.7558778403
C                 4.3247885758        0.0586947096       -2.4331870979
C                 2.0754933400       -0.2344094049       -3.5747547411
C                 1.8543165600       -0.6180265692       -4.9017961182
C                 0.8719265985        0.0054659566       -5.6743079466
C                 0.0925635380        1.0232503949       -5.1247383346
C                 0.3007044559        1.4102184269       -3.7984697272
C                 1.2838377369        0.7873182912       -3.0301052993
H                -2.2274245077       -2.7116062901        2.2832881437
H                -2.8671852054       -1.2247295437        3.0300692909
H                -3.9405626209       -2.2929438601        2.1046352612
H                -3.3243065638       -0.2649329426        0.7629259405
H                -2.7483554289       -1.7378473271       -0.0090468860
H                -2.5902623979        1.9655002293        0.8359979889
H                -1.1411276542        2.7908010821        1.3791131925
H                -4.4453337417        1.4330542255        2.6949515910
H                -4.4521545468        1.4546723771        5.4182786478
H                -1.8773552340        1.9393847045        6.1590075687
H                 0.4413997917        1.8934636311        3.2650550639
H                 0.3305096402        2.0326085965        5.0320216118
H                -0.0025427662        3.4491030396        4.0097808435
H                 2.1826614543       -2.7136155036        0.7669993563
H                 1.8063194696       -4.2936905353        0.0178282751
H                 2.3442261275       -0.8853876214       -0.7673811103
H                 3.5638436898       -1.7477499260       -3.3361456721
H                 5.1242340594       -0.4644777833       -1.8980484660
H                 3.9804029175        0.8912874882       -1.8083478003
H                 4.7362995503        0.4825025876       -3.3551280197
H                 2.4525098227       -1.4179521722       -5.3318514618
H                 0.7139804697       -0.3088835807       -6.7028359599
H                -0.6734093390        1.5101023973       -5.7228433857
H                -0.3037549018        2.2011233594       -3.3611075386
H                 1.4249876220        1.0947098197       -1.9963140279



