%chk=./calculation/no_transfer_pubchem_sampling_3_b3lyp/2077773.chk
%nprocshared=7
%mem=6GB
#p b3lyp/6-31g(d) opt SCF=XQC 

Gaussian input prepared by ASE

0 1
N                -4.4405035738       -4.0194807316       -1.1161499243
C                -3.6492168896       -3.2137937746       -0.8970881614
C                -2.6399297892       -2.2845942440       -0.6073501588
C                -1.2852129989       -2.8724422078       -0.7238755557
O                -0.9821555114       -3.9511601596       -0.2757355932
C                -0.3276816606       -2.0638749105       -1.5832660421
S                 1.3542111202       -2.0654419490       -0.8666091798
C                 1.6422941264       -0.3582326954       -0.9516127944
N                 0.8724348651        0.5314009782       -1.5227946717
N                 1.4353720039        1.7314947314       -1.3441510397
C                 2.5548716474        1.5751436461       -0.6785433219
C                 3.3718389347        2.6635469749       -0.2413630519
C                 3.2412807153        3.9635789540       -0.6565383082
C                 4.1293006150        4.8358553729       -0.0030285306
C                 4.9139953369        4.1980836702        0.9058407146
S                 4.5934173369        2.5139332625        0.9832659248
N                 2.7432430627        0.2382213010       -0.4018679722
C                 3.8517193225       -0.4045248773        0.1847681070
C                 3.6759152563       -1.2199929296        1.2934254045
C                 4.7707617242       -1.8551141763        1.8501115681
C                 6.0311817724       -1.6790475782        1.3049866670
C                 6.1999121574       -0.8710549592        0.1929418200
C                 5.1124677882       -0.2340476232       -0.3745349041
C                -2.8800978266       -0.9978755051       -0.1752779955
C                -1.7858313988       -0.2503205075        0.4797089790
C                -1.5502136710        1.0881384475        0.1610938390
C                -0.5430284999        1.7962018489        0.7853660554
C                 0.2369422815        1.1485034693        1.7274922897
F                 1.2342173140        1.8253784595        2.3319266369
C                 0.0279279689       -0.1767618455        2.0646233528
C                -0.9876001316       -0.8739723300        1.4367153385
N                -4.0661769472       -0.3559606570       -0.2793277890
C                -4.5314626377        0.5939884209        0.7117443357
C                -5.6970602549       -0.0372563535        1.4915432387
O                -6.7474495670       -0.4008016351        0.6326623232
C                -6.3138433997       -1.3382306835       -0.3283667982
C                -5.1497102706       -0.7669359857       -1.1471568787
H                -0.2624466732       -2.5624004823       -2.5535889725
H                -0.6134036416       -1.0233580662       -1.7193131311
H                 2.5284897793        4.2540960430       -1.4055947447
H                 4.1820014300        5.8917759013       -0.1978360453
H                 5.6706415689        4.6134087887        1.5413301981
H                 2.6894169538       -1.3549250652        1.7073021152
H                 4.6367100961       -2.4896787408        2.7126823470
H                 6.8827849982       -2.1760822582        1.7439163553
H                 7.1800366987       -0.7395843149       -0.2394432016
H                 5.2311910707        0.3906719260       -1.2476457789
H                -2.1430499128        1.5686657421       -0.6011598544
H                -0.3382114806        2.8226304841        0.5296938889
H                 0.6459678205       -0.6455296347        2.8142869324
H                -1.1682315466       -1.9045558954        1.7021451000
H                -3.7306743847        0.8600107716        1.3997062385
H                -4.8896452586        1.4949095170        0.2021093930
H                -5.3290260944       -0.9200127098        2.0378641889
H                -6.1120513751        0.6803392904        2.2009845208
H                -6.0015098887       -2.2719652518        0.1592704638
H                -7.1703983236       -1.5394412109       -0.9717898765
H                -5.5017133351        0.1306421983       -1.6705928443
H                -4.8030098226       -1.4921692504       -1.8798492164



