%chk=calculation/no_transfer_pubchem_sampling_3_b3lyp/2077773_rwf.chk
%rwf=calculation/no_transfer_pubchem_sampling_3_b3lyp/2077773_rwf.rwf
%nprocshared=14
%mem=3GB
#p b3lyp/6-31g(d) 6D 10F nosymm GFInput td=(50-50,nstate=2) SCF=XQC 

Gaussian input prepared by ASE

0 1
N                -3.8978025472       -4.2975825282       -0.9586792821
C                -3.3025853784       -3.3350630506       -0.6765193452
C                -2.6004805785       -2.1471856332       -0.3151707443
C                -1.1200454230       -2.2929891141       -0.3580426338
O                -0.5911343147       -3.3894611555       -0.2370342917
C                -0.2738000618       -1.0853358837       -0.7439359836
S                 1.4775708861       -1.4241543638       -0.2996616532
C                 2.0391837878        0.2483837916       -0.3693066457
N                 1.3173895809        1.3352484219       -0.5323938872
N                 2.1760147947        2.4106354010       -0.5026227487
C                 3.4015422041        1.9563282627       -0.3277144971
C                 4.5658905563        2.8237004106       -0.2562848917
C                 4.5362995014        4.1787382290       -0.5066074698
C                 5.7971503376        4.8111047404       -0.3346799236
C                 6.7804076175        3.9385897379        0.0462715103
S                 6.1812780679        2.3194029995        0.2022978656
N                 3.3741864479        0.5696873349       -0.2359427181
C                 4.4537350360       -0.3616425995       -0.0767976253
C                 4.7776277002       -0.8322613579        1.1987697216
C                 5.8183629497       -1.7489127530        1.3467980316
C                 6.5271076888       -2.1906913283        0.2278573062
C                 6.1940136112       -1.7204071733       -1.0443884268
C                 5.1534701191       -0.8062230474       -1.2022095204
C                -3.3065852497       -1.0167229031        0.1170404588
C                -2.6504357649       -0.0280503241        1.0136679619
C                -2.7068774023        1.3499441068        0.7347378619
C                -2.0566879298        2.2689542423        1.5497886096
C                -1.3634545243        1.7995683314        2.6631004570
F                -0.7416510716        2.6839040579        3.4598454573
C                -1.3005024078        0.4470898431        2.9799562727
C                -1.9436313605       -0.4650683574        2.1466661364
N                -4.6103659607       -0.7760865586       -0.2049929351
C                -5.5448212509       -0.0541775368        0.6741070224
C                -6.7647756418       -0.9399110838        0.9588614720
O                -7.4037912293       -1.3421561475       -0.2392642076
C                -6.5194770531       -2.1007853078       -1.0605638300
C                -5.2826504292       -1.2735560822       -1.4168855178
H                -0.3507731636       -0.9585527281       -1.8309561500
H                -0.5764744534       -0.1455227341       -0.2894214514
H                 3.6238007642        4.6827729488       -0.8009555990
H                 5.9657787952        5.8708566238       -0.4919114956
H                 7.8252961243        4.1427717644        0.2381726021
H                 4.2166856942       -0.4781341517        2.0579780211
H                 6.0735960891       -2.1174268851        2.3359934146
H                 7.3369335029       -2.9049517340        0.3466599073
H                 6.7413495725       -2.0676498922       -1.9157687828
H                 4.8781881089       -0.4343276870       -2.1840736528
H                -3.2358808625        1.6967992065       -0.1479513927
H                -2.0608754678        3.3308068842        1.3297355784
H                -0.7544972321        0.1263114701        3.8605277291
H                -1.9049034489       -1.5253736395        2.3756877800
H                -5.0457648393        0.2141208297        1.6052917062
H                -5.8768375818        0.8662736227        0.1752602932
H                -6.4515667058       -1.8193519689        1.5452069237
H                -7.5043051565       -0.3774462671        1.5372206853
H                -6.2207832569       -3.0298814721       -0.5571281627
H                -7.0770614032       -2.3528314953       -1.9667199027
H                -5.6049865777       -0.3893684906       -1.9855721863
H                -4.5865948095       -1.8427508254       -2.0292872314



