%chk=./calculation/no_transfer_pubchem_sampling_3_b3lyp/20873600.chk
%nprocshared=7
%mem=6GB
#p b3lyp/6-31g(d) opt SCF=XQC 

Gaussian input prepared by ASE

0 1
C                 4.1200595329        1.5227424827        3.5552032226
O                 3.3012759872        0.9408971950        2.5705786569
C                 3.8328252461        0.7153155208        1.3360038575
C                 5.1306133040        1.0361043568        0.9705124922
C                 5.5795195378        0.7642509528       -0.3233809745
O                 6.8749805176        1.1204469143       -0.5668719168
C                 7.4076059664        0.8762711911       -1.8449460303
C                 4.7331704194        0.1778356058       -1.2494060882
C                 3.4259277417       -0.1438713881       -0.8796405403
C                 2.5162221414       -0.7629865007       -1.8328010484
C                 2.6524787184       -0.8809067019       -3.2379283221
C                 1.5064203789       -1.5205063416       -3.6609599013
N                 1.0364109469       -1.8090155974       -4.9100828537
N                 0.7570357441       -1.7614815264       -2.5418910713
S                -0.6549085679       -2.6877137198       -2.2995192758
O                -1.2715286137       -2.8006374901       -3.5936551494
O                -0.2876491283       -3.8955580992       -1.6325932930
C                -1.5582625676       -1.6065517672       -1.2246772509
C                -2.5221414760       -0.7729936336       -1.7479768878
C                -3.1830153204        0.1095570785       -0.9087776171
C                -2.8837061432        0.1675497478        0.4494679880
C                -3.5571162558        1.1238787189        1.4110042671
C                -4.6902281509        1.9678325720        0.8139295251
C                -5.9480965492        1.1522426107        0.5158730084
C                -6.4313486565        0.4259735833        1.7659914101
C                -5.3138238828       -0.4539203422        2.3136967368
C                -4.0979779999        0.3997049027        2.6557171398
C                -1.8701498784       -0.6623243047        0.9348027798
C                -1.2113704733       -1.5534215705        0.1107433689
N                 1.3740135473       -1.2964543916       -1.4320745348
C                 2.9807845012        0.1238434545        0.4052755437
H                 4.9926445341        0.8987335340        3.7732163064
H                 4.4545317876        2.5229554437        3.2611720796
H                 3.5003615759        1.5987383224        4.4475582376
H                 5.8298385190        1.4940794879        1.6499806959
H                 7.4032787877       -0.1918240660       -2.0855268365
H                 6.8627309749        1.4258219202       -2.6195911074
H                 8.4362889573        1.2320776769       -1.8085808689
H                 5.0688773536       -0.0462435700       -2.2474703915
H                 3.4497190083       -0.5328647818       -3.8604650899
H                 0.2069461085       -2.3871028165       -4.9187298107
H                 1.7317349210       -2.0268386657       -5.6048235642
H                -2.7486329627       -0.8271321039       -2.8012538053
H                -3.9227898319        0.7633983749       -1.3391132798
H                -2.7704620982        1.8140780179        1.7457958198
H                -4.3459088452        2.4817949647       -0.0851912246
H                -4.9480345168        2.7390880367        1.5444537508
H                -6.7296914557        1.8197091072        0.1458350707
H                -5.7481486699        0.4103510471       -0.2577921001
H                -7.3071593876       -0.1806114839        1.5279041743
H                -6.7249297392        1.1542539049        2.5259287840
H                -5.6557175238       -0.9801115208        3.2072086884
H                -5.0346915207       -1.2014635226        1.5676354641
H                -3.3262710502       -0.2226595963        3.1073294842
H                -4.3880941172        1.1518395241        3.3933576174
H                -1.5778487737       -0.6006003522        1.9716434585
H                -0.4285410086       -2.1978753292        0.4737470940
H                 1.9719514061       -0.1276950663        0.6840841120



