%chk=calculation/no_transfer_pubchem_sampling_3_b3lyp/20873600_rwf.chk
%rwf=calculation/no_transfer_pubchem_sampling_3_b3lyp/20873600_rwf.rwf
%nprocshared=14
%mem=3GB
#p b3lyp/6-31g(d) 6D 10F nosymm GFInput td=(50-50,nstate=2) SCF=XQC 

Gaussian input prepared by ASE

0 1
C                 6.1711453086        0.0211582499        3.5522851643
O                 5.1511899432       -0.5537898067        2.7530219176
C                 5.0253518412       -0.1291929795        1.4612148280
C                 5.8347729702        0.8449992351        0.8778373614
C                 5.6169686114        1.2058360595       -0.4611479696
O                 6.4588967676        2.1735383554       -0.9367785029
C                 6.3065683826        2.5927233695       -2.2819751002
C                 4.6071687543        0.6024383547       -1.2087856677
C                 3.7988647352       -0.3828474622       -0.6083231776
C                 2.7263510352       -1.0281638528       -1.3887039033
C                 2.5489375183       -1.0162924515       -2.8025042692
C                 1.4121217962       -1.7598600476       -3.0474037873
N                 0.7386831430       -2.0178117098       -4.2213727492
N                 0.9864116720       -2.1996082625       -1.8007615938
S                -0.4493433263       -3.0416140207       -1.3500969660
O                -1.0097788742       -3.5081241774       -2.6246040952
O                -0.0847583429       -3.9692580170       -0.2914329353
C                -1.5011519152       -1.7707679669       -0.6779700307
C                -2.4928758598       -1.2076161474       -1.4775203082
C                -3.3142519732       -0.2154032542       -0.9401961682
C                -3.1627114798        0.2232329623        0.3826810359
C                -4.0093970768        1.3301632944        1.0146769158
C                -5.0104842830        2.0366963743        0.0710060149
C                -6.2982523258        1.2385308004       -0.2091640445
C                -6.9778919310        0.7772150509        1.0882468226
C                -5.9945300932        0.0029895805        1.9769494459
C                -4.7537456936        0.8499385100        2.2915016154
C                -2.1380446347       -0.3601957576        1.1522112122
C                -1.3087649679       -1.3511487132        0.6416079186
N                 1.7774133311       -1.7275349911       -0.7777731375
C                 4.0083591939       -0.7474380407        0.7201146955
H                 7.1684360304       -0.1676635237        3.1329609517
H                 6.0311610302        1.1041056818        3.6701370469
H                 6.0935403258       -0.4607074194        4.5288178647
H                 6.6325752384        1.3416243938        1.4155433939
H                 6.4613053500        1.7627836286       -2.9845269200
H                 5.3162147973        3.0331435651       -2.4594382610
H                 7.0730742742        3.3523624384       -2.4477955180
H                 4.4239667241        0.8952184165       -2.2345002309
H                 3.1777711619       -0.5569507809       -3.5509771871
H                 0.1148320466       -2.8160643289       -4.1905024182
H                 1.3229478814       -1.9824646125       -5.0462195498
H                -2.6250195983       -1.5462819932       -2.4993095567
H                -4.0770748756        0.2177953580       -1.5760481976
H                -3.2867592826        2.0926567521        1.3411333149
H                -4.5176427774        2.3163554369       -0.8685505732
H                -5.2945090567        2.9821788364        0.5534110197
H                -6.9849833028        1.8578703694       -0.8002395941
H                -6.0772789307        0.3545033279       -0.8208265080
H                -7.8548409407        0.1600264569        0.8562348127
H                -7.3484112694        1.6542998237        1.6397623181
H                -6.4814791374       -0.2987073346        2.9127358415
H                -5.6906786582       -0.9235614250        1.4694604245
H                -4.0709857557        0.2964919102        2.9459097830
H                -5.0662215167        1.7417850643        2.8532274793
H                -1.9784941301       -0.0231775253        2.1729172534
H                -0.5212754300       -1.7898961671        1.2437337114
H                 3.3966105749       -1.5105188873        1.1860387575



