%chk=./calculation/no_transfer_pubchem_sampling_3_b3lyp/23574939.chk
%nprocshared=7
%mem=6GB
#p b3lyp/6-31g(d) opt SCF=XQC 

Gaussian input prepared by ASE

0 1
C                 4.5315738204        0.6119872755        2.5770451142
C                 3.1142557507        0.7906675729        2.0204903536
O                 3.0383838337        2.0823832566        1.4543700081
C                 1.7843542842        2.7186100180        1.5002565451
C                 0.8365291802        2.3807265207        0.3222266155
C                 1.5168055287        2.7743789301       -0.9887023966
C                -0.4815582436        3.1713687817        0.4931168515
C                -1.6382640553        2.4370233193       -0.1801342244
C                -1.8974602631        1.1055582443        0.5445201265
N                -2.6573973798        0.1636132855       -0.2739842589
C                -4.0206921992        0.0946709781       -0.0696940714
C                -4.8472660466       -0.7192383249       -0.8592942862
C                -6.2050594497       -0.6963694105       -0.6330529159
C                -6.7233397379        0.1330818370        0.3562637639
C                -5.8308680125        0.9132447638        1.0639011589
N                -4.5245112638        0.9046715182        0.8598304915
C                -1.9920456402       -0.8316967781       -0.9975288221
C                -1.0307380586       -0.5174993392       -1.9630159122
C                -0.3772586344       -1.5499785765       -2.6109009454
C                -0.7069002114       -2.8606314971       -2.2988991030
C                -1.7024178381       -3.0686183367       -1.3567669158
N                -2.3183834846       -2.0908900628       -0.7228429902
C                -0.5661770544        0.5189382578        1.0649027167
N                 0.6040163659        0.9370439556        0.3281959492
C                 2.8406868443       -0.3107642790        1.0202831725
C                 3.3771928423       -0.2293718136       -0.2589943964
C                 3.1480881692       -1.2408261760       -1.1776321447
C                 3.6606906085       -1.0754711595       -2.5809486482
F                 3.7328547360       -2.2264982852       -3.2600193916
F                 2.8554185698       -0.2660579541       -3.3028153426
F                 4.8794516046       -0.5203944257       -2.6269624060
C                 2.4163533620       -2.3695892290       -0.8357461003
C                 1.9250408083       -2.4638240212        0.4566689412
C                 1.1513400668       -3.6754398290        0.8971928895
F                -0.0328437731       -3.3461997923        1.4383770579
F                 0.8960118306       -4.5360395067       -0.0947881009
F                 1.8097719217       -4.3715775997        1.8432456259
C                 2.1346845683       -1.4506020182        1.3811948305
H                 5.2550090590        0.7204040029        1.7744560936
H                 4.6372391293       -0.3720797470        3.0247442822
H                 4.7281858571        1.3734446373        3.3263118356
H                 2.3883707957        0.7058272105        2.8430133570
H                 1.2812794453        2.4848712739        2.4486086530
H                 2.0010322289        3.7905138416        1.4782576605
H                 0.8687565416        2.5713135611       -1.8384803112
H                 1.7577287064        3.8341871331       -0.9845591675
H                 2.4377756976        2.2141563831       -1.1124205439
H                -0.3662385031        4.1657798095        0.0615552941
H                -0.7133504875        3.2943031700        1.5528795640
H                -1.4008549601        2.2637787009       -1.2303365278
H                -2.5442098600        3.0426670163       -0.1492919016
H                -2.5471223838        1.3072256420        1.4021024504
H                -4.4274663530       -1.3486460916       -1.6257038250
H                -6.8620265143       -1.3153237410       -1.2271633825
H                -7.7814705781        0.1735546888        0.5584050064
H                -6.1652460637        1.5919679499        1.8386738350
H                -0.8359987629        0.5060222208       -2.2395739634
H                 0.3638261488       -1.3298354573       -3.3658356458
H                -0.2239694697       -3.6936058982       -2.7835153520
H                -2.0210131779       -4.0663671424       -1.0864708681
H                -0.4280485225        0.8310242483        2.1034425694
H                -0.6096809664       -0.5727068918        1.0528001131
H                 0.5685328533        0.5767170591       -0.6177440612
H                 3.9618587156        0.6360876405       -0.5310522659
H                 2.2454161821       -3.1571819471       -1.5521052739
H                 1.7313598922       -1.5484883730        2.3778125361



