%chk=./calculation/no_transfer_pubchem_sampling_3_b3lyp/2620693.chk
%nprocshared=7
%mem=6GB
#p b3lyp/6-31g(d) opt SCF=XQC 

Gaussian input prepared by ASE

0 1
C                 2.6328816987        2.7482872942        1.2520194317
C                 1.8648603538        1.4346202363        1.1682444017
C                 1.9598255599        0.7728032190       -0.2104112465
C                 1.2126019062        1.5638807054       -1.2816295889
C                 1.4881757388       -0.7008623050       -0.1266862243
N                 2.4277010866       -1.4568950427        0.6723001287
S                 3.4030855718       -2.5263018370       -0.1297778768
O                 2.8102403486       -2.9404825925       -1.3721639945
O                 3.8453557448       -3.5160126462        0.8007268855
C                 4.7846130945       -1.4468195542       -0.5234305658
C                 5.2627241261       -1.3739840545       -1.8162453546
C                 6.3185355696       -0.5232547532       -2.1086492813
C                 6.8784552312        0.2517098567       -1.1076420156
C                 6.3850984276        0.1646564639        0.1903063290
C                 6.9637248480        1.0524211652        1.2583964198
F                 6.3967932158        2.2774494377        1.2367838523
F                 6.7818313283        0.5779214536        2.4945404128
F                 8.2810493408        1.2530220748        1.1079911590
C                 5.3334383533       -0.6893497765        0.4918657003
C                 0.1021893278       -0.8523287236        0.5146477386
O                -0.0154401347       -1.2643304179        1.6501012362
N                -0.9128141870       -0.5039235457       -0.3045540882
C                -2.2855812922       -0.4756224792       -0.0403698253
C                -2.8313687819       -0.8584855727        1.1732200298
C                -4.2071232920       -0.7830553931        1.3048245008
O                -4.9284497190       -1.1129812762        2.4087322151
C                -6.2323068785       -0.8880167730        2.0926496741
C                -7.3258717381       -1.0871367572        2.9160695178
C                -8.5737443121       -0.7942408567        2.3954848912
C                -8.7264875906       -0.3179420086        1.0954939492
C                -7.6353146572       -0.1189816552        0.2733328631
C                -6.3716557126       -0.4062892068        0.7741815584
C                -5.0328834088       -0.3383419469        0.2583113886
C                -4.4767314567        0.0480186715       -0.9583138433
C                -3.1065266394       -0.0195695794       -1.1040763501
O                -2.4233313894        0.3364028342       -2.2439344323
C                -3.1680630488        0.7741791424       -3.3547498371
H                 2.5981026533        3.1350688890        2.2671316615
H                 2.2046959324        3.4979294376        0.5917492977
H                 3.6759150431        2.6033094092        0.9797374346
H                 2.2665116745        0.7396287432        1.9068648116
H                 0.8150140922        1.6080067750        1.4150928402
H                 3.0178508980        0.7270962411       -0.4956796354
H                 1.1793703488        1.0104853949       -2.2183855537
H                 0.1980657508        1.7958086134       -0.9666125408
H                 1.7267384364        2.5027479609       -1.4695895268
H                 1.4725949469       -1.1389856315       -1.1330813324
H                 1.9894351846       -1.8324800052        1.5081345050
H                 4.7939195762       -1.9830719983       -2.5730049791
H                 6.7029111950       -0.4597089829       -3.1145540099
H                 7.6976098373        0.9205490872       -1.3243421425
H                 4.9385539059       -0.7717235852        1.4915081330
H                -0.6896748095       -0.2263544660       -1.2510141431
H                -2.2025812234       -1.2026799472        1.9752311213
H                -7.2010084062       -1.4562821668        3.9210947273
H                -9.4489410654       -0.9383176366        3.0106998576
H                -9.7182977574       -0.1017321903        0.7275838658
H                -7.7559585871        0.2498914902       -0.7338081274
H                -5.1187834863        0.3889380000       -1.7533069484
H                -2.4366295255        0.9853252889       -4.1332836646
H                -3.8570826185       -0.0000656647       -3.7050443563
H                -3.7278186296        1.6864541433       -3.1269970541



