%chk=calculation/no_transfer_pubchem_sampling_3_b3lyp/2620693_rwf.chk
%rwf=calculation/no_transfer_pubchem_sampling_3_b3lyp/2620693_rwf.rwf
%nprocshared=14
%mem=3GB
#p b3lyp/6-31g(d) 6D 10F nosymm GFInput td=(50-50,nstate=2) SCF=XQC 

Gaussian input prepared by ASE

0 1
C                 2.7213895721        2.8978359552        1.2562848211
C                 1.8582921452        1.6361508931        1.1326598399
C                 1.9199395096        0.9732827151       -0.2574470148
C                 1.1996535941        1.7928480661       -1.3395385525
C                 1.4507633053       -0.5158420183       -0.2203409938
N                 2.3873654024       -1.3257626529        0.5720833605
S                 3.3715856029       -2.4565646238       -0.1793533548
O                 2.8410969724       -2.8296481506       -1.4981849382
O                 3.6481400031       -3.4710542843        0.8399545138
C                 4.8747923911       -1.5147646356       -0.4939904205
C                 5.5290227561       -1.6845661607       -1.7146971442
C                 6.7185974530       -0.9932929599       -1.9501250035
C                 7.2360603406       -0.1343935956       -0.9816709538
C                 6.5677462610        0.0257059767        0.2363168076
C                 7.0675867551        1.0157301608        1.2550375532
F                 6.4506956651        2.2169784508        1.1140004631
F                 6.8312614586        0.6018254061        2.5165764689
F                 8.3927130799        1.2396410561        1.1351190306
C                 5.3891849297       -0.6748635355        0.4926863448
C                 0.0598575411       -0.7185905764        0.4193620860
O                -0.0468361487       -1.1448964412        1.5662408420
N                -0.9916519711       -0.3841711105       -0.3822954753
C                -2.3684929605       -0.4104950246       -0.0845608806
C                -2.8951486781       -0.8485048948        1.1321071743
C                -4.2770066087       -0.8126486461        1.2608069428
O                -4.9633657371       -1.2065319698        2.3879275402
C                -6.2953637758       -1.0160590114        2.1026532044
C                -7.3436555760       -1.2883778256        2.9701455184
C                -8.6320434640       -1.0286720351        2.4990884878
C                -8.8482679743       -0.5166906905        1.2084355873
C                -7.7814590051       -0.2500161311        0.3522549874
C                -6.4801469218       -0.5026722590        0.8030598902
C                -5.1456257810       -0.3705130859        0.2528930498
C                -4.6079597550        0.0687413996       -0.9664972106
C                -3.2283815105        0.0479152843       -1.1256899625
O                -2.5657247410        0.4537982694       -2.2606991769
C                -3.3357452468        0.8936024231       -3.3694613079
H                 2.6402876281        3.3233041011        2.2626857842
H                 2.4192166761        3.6776922538        0.5478018007
H                 3.7799470348        2.6736019937        1.0774525529
H                 2.1863695595        0.9087799040        1.8844744605
H                 0.8134676996        1.8761984388        1.3748906580
H                 2.9773086975        0.9083000415       -0.5488428122
H                 1.2410084934        1.2925404707       -2.3160234550
H                 0.1477066593        1.9725268397       -1.0901604683
H                 1.6746800887        2.7713085611       -1.4603056442
H                 1.4259639647       -0.9016305337       -1.2469763378
H                 1.9308228132       -1.7407967020        1.3888790308
H                 5.0996273478       -2.3397820230       -2.4647368698
H                 7.2385657197       -1.1194602352       -2.8949269679
H                 8.1554799609        0.4109027243       -1.1660070873
H                 4.8686755271       -0.5558379577        1.4359586005
H                -0.7871423740       -0.0802372289       -1.3257408226
H                -2.2468281778       -1.1966478633        1.9227560358
H                -7.1610121290       -1.6838976054        3.9636986589
H                -9.4827351452       -1.2273111763        3.1447051922
H                -9.8641894574       -0.3265731307        0.8742112990
H                -7.9585869066        0.1454730244       -0.6442600557
H                -5.2568246030        0.4169474643       -1.7612956397
H                -2.6186402675        1.1486218793       -4.1514573620
H                -4.0031466451        0.1004547240       -3.7294368061
H                -3.9288910478        1.7810592980       -3.1147718689



