%chk=calculation/no_transfer_pubchem_sampling_3_b3lyp/26214171_rwf.chk
%rwf=calculation/no_transfer_pubchem_sampling_3_b3lyp/26214171_rwf.rwf
%nprocshared=14
%mem=3GB
#p b3lyp/6-31g(d) 6D 10F nosymm GFInput td=(50-50,nstate=2) SCF=XQC 

Gaussian input prepared by ASE

0 1
C                 8.5217615422        2.1656541228        1.9357121357
O                 7.3493229187        2.8514975930        1.5274224590
C                 6.1709064274        2.1618028440        1.5100381709
C                 5.0437795652        2.8913757160        1.1043615547
C                 3.7981652467        2.2789624509        1.0561028648
C                 3.6310669365        0.9296984972        1.4083705558
C                 2.2793509811        0.2577758790        1.3123073496
C                 2.0517593232       -0.3824868754       -0.0733013579
N                 0.7644904399       -1.0531176378       -0.1799037294
N                 0.6268834970       -2.2969553570        0.3207820083
C                -0.6670808729       -2.6125262549        0.1495379384
C                -1.3256112521       -3.9119939818        0.4828103621
O                -2.4726376505       -4.0798159958        0.0505658373
N                -0.6984152010       -4.8819977126        1.2262252692
C                -1.4211654398       -6.1204852923        1.4799117115
C                 0.5883779392       -4.7862539837        1.8991500104
C                -1.3667817275       -1.5403788694       -0.4661669498
C                -0.4167209916       -0.5608043563       -0.6580844215
C                -0.6825444572        0.7621816230       -1.3010510497
C                -2.0326980300        0.6591416010       -2.0350643413
N                -3.0491046521        0.0695521777       -1.1630926325
C                -4.4101667124        0.2617129067       -1.6701253783
C                -4.8463173744        1.6991829408       -1.6471231240
C                -4.7669167693        2.6205872684       -0.5741041399
N                -5.2717134547        3.8120913117       -0.8917292310
N                -5.6801307285        3.6781709238       -2.1739570161
C                -6.3615428114        4.7781237356       -2.8266774989
C                -5.4445335080        2.4294127586       -2.6598590127
C                -2.7923119436       -1.3544021942       -0.8894953922
C                 4.7650872137        0.2192423710        1.8113358726
C                 6.0276084472        0.8162769643        1.8667347730
H                 8.4387548770        1.8024041826        2.9687606873
H                 9.3318554509        2.8946825494        1.8745792062
H                 8.7462176157        1.3186300826        1.2736906958
H                 5.1702069269        3.9363060978        0.8385274851
H                 2.9336595226        2.8628086338        0.7464564849
H                 1.4781149261        0.9823800706        1.5025104690
H                 2.1834853171       -0.5300012695        2.0679213770
H                 2.1033259167        0.3782731384       -0.8579142350
H                 2.8251370463       -1.1278882787       -0.2762031854
H                -0.8021109285       -6.9799409674        1.1914058806
H                -1.6625431445       -6.2157429094        2.5480199643
H                -2.3428225025       -6.1159661571        0.9011043529
H                 1.0738680175       -3.8418427033        1.6718277815
H                 0.4506866009       -4.8791506263        2.9862919538
H                 1.2415062471       -5.6075578886        1.5730949291
H                 0.1062739808        1.0379467665       -2.0136856037
H                -0.7361878435        1.5616004280       -0.5495847817
H                -2.3668769795        1.6581128918       -2.3274215075
H                -1.8991866927        0.0689582253       -2.9645340163
H                -5.0701757674       -0.3344553044       -1.0262362453
H                -4.5339269413       -0.1471442917       -2.6935643021
H                -4.3446522439        2.4572791045        0.4087412729
H                -6.3337691070        4.6262881148       -3.9083674782
H                -7.4049032668        4.8465226008       -2.4986919808
H                -5.8499715234        5.7100834921       -2.5771024016
H                -5.7141808841        2.1554923892       -3.6709794129
H                -3.4745807967       -1.6937958146       -0.1043200461
H                -3.0065607989       -1.9891710518       -1.7712907926
H                 4.6676206710       -0.8260467014        2.0974423717
H                 6.8795744029        0.2297090220        2.1912234787



