%chk=./calculation/no_transfer_pubchem_sampling_3_b3lyp/28553142.chk
%nprocshared=7
%mem=6GB
#p b3lyp/6-31g(d) opt SCF=XQC 

Gaussian input prepared by ASE

0 1
C                10.8223256917        2.0653991172       -2.2117007867
O                 9.5701123727        1.4967876139       -1.8565659407
C                 9.5288202057        0.1533543014       -1.8464988293
O                10.4720313410       -0.5478176592       -2.1156902047
C                 8.2041105893       -0.3439247364       -1.4700999911
C                 7.0881397169        0.3704265599       -1.1526333582
C                 5.9810488287       -0.4590609975       -0.8382652546
C                 4.6849857855       -0.0928017417       -0.4698565115
C                 3.7451413398       -1.0722470574       -0.2029272195
N                 2.4570754514       -0.6539752814        0.1634057706
C                 1.3663354310       -1.4127200622        0.4709320251
O                 1.3238442436       -2.6136902736        0.4802487025
C                 0.1533038913       -0.5267095600        0.8084972614
O                -0.8992740019       -1.3734812791        1.1859085235
C                -2.0946130876       -0.8387737789        1.5238941886
C                -3.0786987185       -1.7592453150        1.9031503281
C                -4.3334776905       -1.3229705420        2.2682696524
C                -4.6148917646        0.0324397687        2.2529052019
S                -6.2278222925        0.6200303355        2.7321079315
O                -7.0987909650       -0.4939678168        2.9550891267
O                -6.0846734411        1.6079364315        3.7607145156
N                -6.7074673398        1.5059661769        1.3839818318
C                -7.3168490430        0.9398738010        0.2685139688
C                -8.2110198430        1.6824071564       -0.4992033286
C                -8.7837799012        1.1297114181       -1.6290533775
C                -8.4800155157       -0.1682400017       -2.0033664819
C                -7.5928459780       -0.9080335246       -1.2397730471
C                -7.0063495327       -0.3611896677       -0.1131863291
C                -3.6557593454        0.9521956700        1.8879541911
C                -2.3911294560        0.5239491751        1.5198816416
C                 4.0885392247       -2.4305388142       -0.3006074273
C                 5.3615481549       -2.8080604939       -0.6625614501
C                 6.3092489042       -1.8289553610       -0.9319118551
S                 7.9639152852       -2.0664303691       -1.4023839966
H                11.5958888626        1.7475914955       -1.5096135838
H                10.6877195233        3.1430893375       -2.1718047661
H                11.1106311515        1.7501422247       -3.2166059536
H                 7.0628793558        1.4448275766       -1.1449912096
H                 4.4294890585        0.9547938936       -0.3968346153
H                 2.3474037373        0.3504669551        0.1964726168
H                -0.1135006318        0.0627698356       -0.0819640578
H                 0.4199379408        0.1584887274        1.6271954145
H                -2.8211092368       -2.8058327320        1.9020642131
H                -5.1070490416       -2.0118027306        2.5696048162
H                -7.0304598878        2.4269277458        1.6374362472
H                -8.4532350006        2.6934664068       -0.2037413014
H                -9.4762053912        1.7153881280       -2.2155398536
H                -8.9332496446       -0.6001272580       -2.8824860053
H                -7.3514054473       -1.9215895795       -1.5231466720
H                -6.3195998140       -0.9390305341        0.4823732635
H                -3.9029148336        2.0014635257        1.8998119728
H                -1.6518928391        1.2565532565        1.2371086750
H                 3.3414439636       -3.1756925078       -0.0879427208
H                 5.6221616340       -3.8514609591       -0.7365669517



