%chk=calculation/no_transfer_pubchem_sampling_3_b3lyp/28553142_rwf.chk
%rwf=calculation/no_transfer_pubchem_sampling_3_b3lyp/28553142_rwf.rwf
%nprocshared=14
%mem=3GB
#p b3lyp/6-31g(d) 6D 10F nosymm GFInput td=(50-50,nstate=2) SCF=XQC 

Gaussian input prepared by ASE

0 1
C                11.5614603189        1.4433874320       -0.7671520902
O                10.1849746041        1.0295199493       -0.7613717608
C                 9.9560465288       -0.2012628079       -1.2720773473
O                10.8263056097       -0.9275409764       -1.7115421977
C                 8.5264385304       -0.5533386939       -1.2308324763
C                 7.4767551117        0.1849533517       -0.7621095295
C                 6.2199370772       -0.4927521490       -0.8874671959
C                 4.9375160850       -0.0526649065       -0.5188845316
C                 3.8340135810       -0.8758894544       -0.7285294135
N                 2.5679315367       -0.3773711033       -0.3394735670
C                 1.3328974954       -0.9681953610       -0.4551125955
O                 1.1199456379       -2.0853322751       -0.8910268865
C                 0.1803697536       -0.0449138896       -0.0298159955
O                -0.7410443373       -0.8364876275        0.6936721958
C                -1.9339081425       -0.2913088916        1.0560479951
C                -2.8033427691       -1.1546151513        1.7405719643
C                -4.0466751178       -0.7018642863        2.1593504634
C                -4.4269923426        0.6172276118        1.8886721165
S                -6.0089132522        1.2150703977        2.4669096875
O                -6.6372669437        0.1310377990        3.2234519227
O                -5.8235566511        2.5536227543        3.0384749396
N                -6.8777045007        1.5364895999        1.0246670647
C                -7.7703292056        0.5932998922        0.4426261874
C                -9.0901761434        0.9725584072        0.1684570068
C                -9.9569206948        0.0841211731       -0.4663566066
C                -9.5250527125       -1.1972902865       -0.8105336996
C                -8.2114551960       -1.5765564344       -0.5269519151
C                -7.3301054914       -0.6865197000        0.0834597118
C                -3.5647630717        1.4844568919        1.2194857928
C                -2.3151277735        1.0340553527        0.7983794815
C                 3.9980182761       -2.1560289685       -1.3106853303
C                 5.2597249616       -2.5997353029       -1.6804137484
C                 6.3708817432       -1.7762800735       -1.4725064766
S                 8.0450618699       -2.1242584414       -1.8554237770
H                12.1705692557        0.7574696233       -0.1726328054
H                11.5663429814        2.4412493998       -0.3279726553
H                11.9496882816        1.4697591234       -1.7886982957
H                 7.5989321170        1.1766214336       -0.3424925813
H                 4.8147547615        0.9317509409       -0.0714338350
H                 2.5908517644        0.5380302428        0.0896791832
H                -0.2829593494        0.3573620910       -0.9424881797
H                 0.5254008671        0.8027061451        0.5806639840
H                -2.4789397782       -2.1719272664        1.9324910982
H                -4.7246154990       -1.3549880261        2.6979851342
H                -7.2694228896        2.4694865209        1.1303745763
H                -9.4365635018        1.9630960872        0.4547734348
H               -10.9765098949        0.3938546147       -0.6789456234
H               -10.2039152305       -1.8927909625       -1.2953218842
H                -7.8618453115       -2.5698724443       -0.7949343441
H                -6.3028422438       -0.9792258516        0.2724934194
H                -3.8620774552        2.5110116974        1.0324950291
H                -1.6524542995        1.7190842383        0.2826280774
H                 3.1286161941       -2.7804803753       -1.4589125357
H                 5.3720468552       -3.5837150643       -2.1257115861



