%chk=./calculation/no_transfer_pubchem_sampling_3_b3lyp/31517855.chk
%nprocshared=7
%mem=6GB
#p b3lyp/6-31g(d) opt SCF=XQC 

Gaussian input prepared by ASE

0 1
O                -2.4428510080        1.1662225621        2.8901094311
C                -2.2922744887        0.0112150783        2.5263608565
C                -3.4696051759       -0.8787671286        2.1800578434
C                -4.4181617214       -0.1135548772        1.2442719721
C                -3.7306630212        0.2493971174       -0.0481642118
C                -3.6286126408       -0.7058319815       -1.0515264765
C                -3.0269835947       -0.4264057212       -2.2640480360
C                -2.5249117066        0.8431693051       -2.4959976982
C                -2.6063236114        1.8052119830       -1.5103530496
C                -3.1881243370        1.5208946911       -0.2746648994
O                -3.2175444849        2.5251742499        0.6348585270
N                -1.0794966197       -0.5561235234        2.4037364501
C                 0.1502563552        0.1960699383        2.5486108479
C                 0.9469223655        0.1655484378        1.2872759429
C                 0.4649672664        0.2690680744       -0.0346346877
N                 1.4497051245        0.1954497572       -0.8991460810
N                 2.5725454854        0.0510621717       -0.1901511455
C                 3.8066798958       -0.0499618991       -0.8403754143
C                 4.9998607628       -0.1668849505       -0.1346075471
C                 6.1964634476       -0.2647173981       -0.8216361682
C                 6.2170614905       -0.2464804450       -2.2056100032
C                 5.0281641263       -0.1281035346       -2.9075660685
C                 3.8273491634       -0.0303660157       -2.2330929367
C                 2.3072327095        0.0225630865        1.1399618319
H                -3.9940253674       -1.1293110779        3.1052541185
H                -3.1329782699       -1.8011261742        1.7049538979
H                -4.7735458381        0.7831549771        1.7556725959
H                -5.2842580292       -0.7416814145        1.0258565852
H                -4.0450527857       -1.6886413506       -0.8754431820
H                -2.9595279280       -1.1894118023       -3.0246441248
H                -2.0597903724        1.0811658446       -3.4405215486
H                -2.2131842995        2.7978410666       -1.6648986311
H                -3.2054415757        2.1772998213        1.5459138972
H                -0.9996126557       -1.4923795898        2.0391556213
H                 0.7422724279       -0.2080767945        3.3776997207
H                -0.1474339560        1.2207169768        2.7967352004
H                -0.5453013392        0.3932771121       -0.3707793162
H                 5.0067972721       -0.1795512981        0.9437131787
H                 7.1192480375       -0.3547793807       -0.2681104460
H                 7.1552557001       -0.3229386468       -2.7337349931
H                 5.0366596951       -0.1116833516       -3.9869588873
H                 2.8908815810        0.0638144418       -2.7584360579
H                 3.0673819202       -0.0868253372        1.8849040922



