%chk=calculation/no_transfer_pubchem_sampling_3_b3lyp/3222718_rwf.chk
%rwf=calculation/no_transfer_pubchem_sampling_3_b3lyp/3222718_rwf.rwf
%nprocshared=14
%mem=3GB
#p b3lyp/6-31g(d) 6D 10F nosymm GFInput td=(50-50,nstate=2) SCF=XQC 

Gaussian input prepared by ASE

0 1
C                -6.8008893204        3.3611663385        0.9765763042
C                -6.0349507684        2.2274921232        0.3352738564
C                -4.7784285228        2.4526409442       -0.2505161961
C                -4.0667909204        1.4185844658       -0.8499404638
C                -4.5894181608        0.1163548673       -0.8812100176
C                -3.8036695735       -1.0108072554       -1.5223633381
N                -2.5943746111       -1.3714922338       -0.7782264424
C                -1.3571091643       -0.9454619799       -1.1375690903
O                -1.1590616340       -0.2835947634       -2.1589353662
C                -0.1794683691       -1.3803005176       -0.2096942897
N                 0.9311434071       -0.5570697921       -0.6944582854
C                 2.1552374095       -0.3589446800       -0.1115552741
O                 2.5277236011       -0.8919554409        0.9342480590
N                 2.9450690545        0.5299491614       -0.8351028505
C                 4.2574599021        0.9627729645       -0.5636703893
C                 5.0126313003        0.5431132043        0.5425343639
C                 6.3072000908        1.0304534695        0.7157107670
C                 6.8953619157        1.9355052730       -0.1757348935
C                 8.2886884404        2.4736741228        0.0530405849
C                 6.1293205268        2.3403206441       -1.2753822928
C                 4.8354771575        1.8668162292       -1.4692761297
C                -0.4988812938       -1.0948430126        1.2952338299
C                -0.9456629347       -2.3467129089        2.0671047000
C                 0.1435065150       -3.4386662330        2.0633362864
C                 0.8564501985       -3.5747789564        0.6903671133
C                 0.0662191255       -2.9078807509       -0.4445307359
C                -5.8383105428       -0.1128501143       -0.3005118431
C                -6.5512781280        0.9291033622        0.2986210281
H                -7.0552353654        4.1367975128        0.2431918754
H                -7.7350329722        3.0095114861        1.4256360877
H                -6.2124225214        3.8467143192        1.7647772370
H                -4.3565307314        3.4555717121       -0.2395100541
H                -3.0985743594        1.6141785364       -1.3041167762
H                -3.4669801798       -0.7322390919       -2.5234755133
H                -4.4310339022       -1.9046707198       -1.6123806749
H                -2.7136000499       -1.7933596421        0.1320827985
H                 0.6973034617       -0.1011309712       -1.5718738519
H                 2.5372901417        0.9285422906       -1.6697175762
H                 4.5820137222       -0.1558237401        1.2450108319
H                 6.8762528190        0.6889943621        1.5782164404
H                 8.9253768822        1.7369645625        0.5553996362
H                 8.7732892714        2.7475426451       -0.8907004350
H                 8.2766453625        3.3733618991        0.6837535228
H                 6.5495489964        3.0375190703       -1.9971940507
H                 4.2672178751        2.1979970569       -2.3371711299
H                -1.2434158781       -0.2935470568        1.3746792505
H                 0.4191026804       -0.7284876889        1.7586695044
H                -1.8772303116       -2.7604025158        1.6498731461
H                -1.1903926251       -2.0653013447        3.0982456723
H                -0.3082358394       -4.3926551307        2.3621432968
H                 0.8892397819       -3.1953323983        2.8287726404
H                 1.0059439009       -4.6325824858        0.4425167693
H                 1.8435099738       -3.1122222873        0.7475069373
H                 0.5849777114       -3.0227055004       -1.4025564671
H                -0.9044789409       -3.4084011071       -0.5547317230
H                -6.2648720449       -1.1140538425       -0.3167064326
H                -7.5228705597        0.7266265393        0.7436700433



