%chk=calculation/no_transfer_pubchem_sampling_3_b3lyp/3229212_rwf.chk
%rwf=calculation/no_transfer_pubchem_sampling_3_b3lyp/3229212_rwf.rwf
%nprocshared=14
%mem=3GB
#p b3lyp/6-31g(d) 6D 10F nosymm GFInput td=(50-50,nstate=2) SCF=XQC 

Gaussian input prepared by ASE

0 1
C                -7.1439603923       -2.9870429803       -2.5601247680
C                -6.3457125975       -1.9853817282       -1.7614892909
C                -5.9341462021       -2.2821579358       -0.4530443516
C                -5.1746211567       -1.3812032688        0.2872574465
C                -4.8244517785       -0.1604630107       -0.2942617339
S                -3.8709894561        1.0294640008        0.6426822828
O                -4.0851850380        2.3589487261        0.0492194399
O                -4.0738837081        0.7722242989        2.0765952296
C                -2.0735331534        0.6884071824        0.2626823289
N                -1.4877125406       -0.3507888638        1.0662314106
N                -1.9511103134       -1.6257158602        0.9314520835
N                -1.3338314092       -2.3374883484        1.8090380916
N                -0.4676704921       -1.5787463438        2.5289113978
C                -0.5654201315       -0.3398678094        2.0712879928
C                 0.4171725167        0.7406354944        2.5084199132
C                -0.1766993546        2.1248646674        2.7678966182
C                -1.4764292602        2.2889221846        3.2600290576
C                -1.9308563888        3.5710351124        3.5617488341
C                -1.0657966109        4.6486685530        3.3732394780
N                 0.1874862353        4.5144664179        2.9224944941
C                 0.6103510843        3.2778352792        2.6361968602
N                 1.6052774641        0.7736103318        1.6517965757
C                 1.4154478008        1.1318681401        0.2518404057
C                 2.7709749746        1.2831867834       -0.4375251237
N                 3.5233441951        0.0325402973       -0.3764864571
C                 4.4840440563       -0.2564220918       -1.3350551918
C                 5.0620242729        0.7730327264       -2.1128163036
C                 6.0269682936        0.4870608923       -3.0736860832
C                 6.4603786328       -0.8190136176       -3.2961566270
C                 5.8957064225       -1.8416688227       -2.5317625146
C                 6.3806478128       -3.2555834992       -2.7100220819
F                 5.4291155908       -4.1664648704       -2.3987490524
F                 6.7703687761       -3.4998640849       -3.9813772773
F                 7.4469462255       -3.5223989776       -1.9177021305
C                 4.9202491117       -1.5772589911       -1.5717840983
C                 3.0518982977       -0.9722032104        0.5673365678
C                 2.5707265044       -0.3248210793        1.8702145317
C                -5.2294482630        0.1711648634       -1.5887023120
C                -5.9871338114       -0.7470114012       -2.3126119891
H                -7.8794323325       -3.5027105582       -1.9336123270
H                -7.6755534979       -2.5089845663       -3.3885086312
H                -6.4879599656       -3.7560166174       -2.9886578294
H                -6.2141389339       -3.2325827791       -0.0061827176
H                -4.8621065083       -1.6131943121        1.2985484707
H                -1.5824507384        1.6400180368        0.4616143687
H                -2.0117253663        0.4386605270       -0.7981956663
H                 0.7687244275        0.3667975621        3.4771216822
H                -2.1385174810        1.4391611215        3.3949260083
H                -2.9399150602        3.7267974709        3.9299282767
H                -1.3893977781        5.6641865859        3.5947321711
H                 1.6365360903        3.1876805056        2.2890991492
H                 0.8098859042        0.3974904388       -0.3111886052
H                 0.8942497988        2.0939242752        0.1977881350
H                 3.3230270595        2.1104822966        0.0352709267
H                 2.5979432894        1.5587020594       -1.4855993815
H                 4.7732671202        1.8051597161       -1.9485308526
H                 6.4521326839        1.3022720592       -3.6529200081
H                 7.2104960773       -1.0410568522       -4.0464829317
H                 4.4813935114       -2.4090471124       -1.0360874968
H                 3.8805211692       -1.6385802185        0.8232736794
H                 2.2550848712       -1.6021130956        0.1383599724
H                 2.1179776451       -1.1140759526        2.4804666739
H                 3.4397634220        0.0669691219        2.4162810496
H                -4.9767854341        1.1399834341       -2.0068275162
H                -6.3135611837       -0.4932823027       -3.3178282535



