%chk=calculation/no_transfer_pubchem_sampling_3_b3lyp/3599559_rwf.chk
%rwf=calculation/no_transfer_pubchem_sampling_3_b3lyp/3599559_rwf.rwf
%nprocshared=14
%mem=3GB
#p b3lyp/6-31g(d) 6D 10F nosymm GFInput td=(50-50,nstate=2) SCF=XQC 

Gaussian input prepared by ASE

0 1
C                10.2410746433        1.4487485974        0.9701179350
C                 9.1351519330        1.4132959699        2.0204766945
O                 7.9230524727        2.0182267658        1.5651525395
C                 7.0734074706        1.3149163411        0.7563624127
C                 5.9347270423        2.0070392827        0.3275375528
C                 4.9909392832        1.3879011726       -0.4828800797
C                 5.1535860423        0.0518404885       -0.8896885858
N                 4.1654740303       -0.5654095972       -1.7018628694
C                 2.8835655402        0.0923453716       -1.9576444380
C                 2.0213356432       -1.0030990858       -2.6341926220
C                 1.1372206744       -1.7351455357       -1.6276842858
O                 1.1572419157       -2.9166019391       -1.3916277168
O                 0.2851902080       -0.8394986270       -1.0411860948
C                -0.6600113305       -1.2585415231       -0.0979126891
C                -0.3296736052       -2.0657052709        0.9883460185
C                -1.3300786469       -2.3675741430        1.9119126449
C                -2.6264901653       -1.8790145282        1.7613752299
C                -2.9304907218       -1.0592183753        0.6682909478
N                -4.2513538283       -0.5408830875        0.5029130642
C                -4.8856477758       -0.3611668183       -0.7558421506
O                -4.4458141345       -0.7279207495       -1.8226119430
C                -6.1543277239        0.4246984184       -0.4801607248
C                -7.3905354504        0.2501216929       -1.3503420194
C                -8.5602943511        0.9225925627       -0.6550877932
C                -8.5837647285        1.3315201233        0.6258385615
C                -9.7790802398        2.0375231897        1.2132335098
C                -7.4183623848        1.1072510665        1.5841482013
C                -6.4632943359        0.0904561913        0.9775786055
C                -5.0896668052       -0.1422092340        1.5792346490
O                -4.7536866259       -0.0622874518        2.7394320652
C                -1.9407565483       -0.7441669639       -0.2683102996
C                 3.0550503254       -1.9381954735       -3.2661875965
C                 4.3341336360       -1.7146975646       -2.4625455100
O                 5.3261872645       -2.4217058642       -2.5047615877
C                 6.2959923496       -0.6391756327       -0.4594301435
C                 7.2445747975       -0.0136769711        0.3497659852
H                10.4325029066        2.4804012402        0.6579379254
H                 9.9759421573        0.8673627994        0.0819015207
H                11.1674836984        1.0357745518        1.3861449762
H                 9.4223602460        2.0085349918        2.8923563791
H                 8.9421055448        0.3909530728        2.3707359332
H                 5.8033416392        3.0377066394        0.6416710926
H                 4.1276333145        1.9627594096       -0.7993823793
H                 2.4393949099        0.4556000539       -1.0275787783
H                 3.0110080485        0.9535723051       -2.6285401495
H                 1.3489701908       -0.5436489069       -3.3660210941
H                 0.6737079294       -2.4550920577        1.1032655968
H                -1.0948339194       -2.9977194274        2.7643724601
H                -3.3879044905       -2.1153434338        2.4930367880
H                -5.8538233039        1.4846654517       -0.5222234979
H                -7.5990872224       -0.8166301636       -1.5220136474
H                -7.2352978130        0.6891743847       -2.3432283163
H                -9.4430659592        1.0957906570       -1.2694610169
H                -9.4973527643        3.0198909369        1.6173715410
H               -10.2049838608        1.4675785900        2.0504765146
H               -10.5673068200        2.1913852285        0.4698738379
H                -7.7919832765        0.7595677192        2.5555116041
H                -6.9021960548        2.0580272766        1.7856961574
H                -6.9568995652       -0.8952558674        0.9947376627
H                -2.1548567872       -0.1238343689       -1.1280164840
H                 2.7656591303       -2.9895916148       -3.2241890650
H                 3.2521229174       -1.6777985869       -4.3127493840
H                 6.4483024872       -1.6617708153       -0.7734838607
H                 8.1144818467       -0.5846428645        0.6534642161



