%chk=./calculation/no_transfer_pubchem_sampling_3_b3lyp/40230084.chk
%nprocshared=7
%mem=6GB
#p b3lyp/6-31g(d) opt SCF=XQC 

Gaussian input prepared by ASE

0 1
C                 4.1511866637        0.1993200876       -3.3272683478
C                 3.3771705324       -0.7914888262       -2.4456768994
N                 2.0826065636       -0.2478168797       -2.1125457805
C                 2.0192329546        0.4458536747       -1.0487665190
C                 0.7455533065        1.1314708894       -0.6422070096
O                 0.6514349723        1.6925300431        0.4357736536
N                -0.2077085381        1.0522289251       -1.5771484427
C                -1.5470697163        1.5494181464       -1.3956284482
C                -2.5594410888        0.4028127998       -1.2469376344
N                -3.9115068734        0.9291370034       -1.2684033092
C                -4.8982254916        0.0000842758       -1.7850420641
C                -5.0545861449       -1.2524706244       -0.9159709292
C                -5.1533165392       -0.8955512018        0.5430347618
C                -5.5828637292       -1.8461743150        1.4620170602
C                -5.6578571524       -1.5488117794        2.8089685375
C                -5.2975570309       -0.2877383816        3.2555182344
C                -4.8669530798        0.6623558426        2.3496865426
C                -4.7905556846        0.3706689843        0.9932867745
C                -4.3483253404        1.4381947395        0.0196748537
N                 3.0629468229        0.6677092868       -0.1979476980
N                 4.0877723146       -0.2985912670       -0.1629023771
C                 4.9257521214       -0.2734140271        0.9723386099
C                 5.4595208166       -1.4482165844        1.4905220470
C                 6.2758916486       -1.3925945683        2.6055362380
C                 6.5539761453       -0.1821114825        3.2176482469
C                 6.0182315853        0.9854686970        2.7016212640
C                 5.2095431856        0.9468384269        1.5808421688
C                 4.2511755411       -1.1243257781       -1.2373497891
O                 5.0503643485       -2.0367151509       -1.2555569909
H                 4.3272952233        1.1263879428       -2.7845031209
H                 3.5719725431        0.4215402225       -4.2198527771
H                 5.1052239140       -0.2343732198       -3.6143972355
H                 3.2173336959       -1.7183661088       -3.0077410285
H                 0.0209159919        0.5030142876       -2.3951479049
H                -1.5304225814        2.1718704586       -0.4992836076
H                -1.8346223949        2.1645650781       -2.2525982462
H                -2.4377978409       -0.2688487557       -2.1013561354
H                -2.3328274590       -0.1628959991       -0.3301071640
H                -4.6189025653       -0.2766219562       -2.8050783236
H                -5.8502158697        0.5363870504       -1.8280839017
H                -5.9407787839       -1.8117978335       -1.2235541437
H                -4.1900516131       -1.9095214989       -1.0588039259
H                -5.8620886379       -2.8292190846        1.1089116748
H                -5.9956630574       -2.2976807338        3.5101022650
H                -5.3505621662       -0.0479556385        4.3071920905
H                -4.5833354748        1.6475479971        2.6924732707
H                -3.5452231774        2.0319408822        0.4592393289
H                -5.1916184681        2.1163026128       -0.1648905293
H                 2.7988198380        1.0339496003        0.7139571000
H                 5.2467717337       -2.3905041893        1.0153701059
H                 6.6904300581       -2.3068782134        3.0025032481
H                 7.1874170258       -0.1474397685        4.0908969865
H                 6.2347496306        1.9352071190        3.1674366125
H                 4.8167823220        1.8653147928        1.1703066078



