%chk=calculation/no_transfer_pubchem_sampling_3_b3lyp/40230084_rwf.chk
%rwf=calculation/no_transfer_pubchem_sampling_3_b3lyp/40230084_rwf.rwf
%nprocshared=14
%mem=3GB
#p b3lyp/6-31g(d) 6D 10F nosymm GFInput td=(50-50,nstate=2) SCF=XQC 

Gaussian input prepared by ASE

0 1
C                 4.2507351384        0.0703927874       -3.4603375312
C                 3.4661238369       -0.8237827204       -2.4798900571
N                 2.1445840328       -0.2582372178       -2.2229285117
C                 2.0070448062        0.3912956987       -1.1304161219
C                 0.6939447531        1.0630239700       -0.7674513484
O                 0.5328634712        1.5416693145        0.3558721769
N                -0.2075733713        1.0645047871       -1.7698359531
C                -1.5612411380        1.5740284618       -1.6216062278
C                -2.5936652322        0.4552992321       -1.3933187023
N                -3.9347992720        1.0205393082       -1.2359961280
C                -5.0140780044        0.1601482070       -1.7274327748
C                -5.1798552224       -1.1352682223       -0.9145838558
C                -5.1506765399       -0.8753038898        0.5808646265
C                -5.5848649140       -1.8567471032        1.4824032533
C                -5.5390134257       -1.6436266338        2.8579145819
C                -5.0498289109       -0.4324789816        3.3541813578
C                -4.6156903370        0.5488122531        2.4664242632
C                -4.6617256606        0.3427508817        1.0817482319
C                -4.2307990044        1.4557892740        0.1312769827
N                 2.9710215249        0.5962279585       -0.1686781349
N                 4.0116646413       -0.3701789805       -0.0991307974
C                 4.8446361699       -0.2758270793        1.0558525352
C                 5.4958120463       -1.4126690206        1.5559819230
C                 6.2829894465       -1.3015019183        2.7000102815
C                 6.4199697355       -0.0792493713        3.3616274895
C                 5.7660294105        1.0459081378        2.8615529514
C                 4.9840171075        0.9563810703        1.7099059164
C                 4.3252567728       -1.0945851061       -1.2366307891
O                 5.2442766920       -1.8996159160       -1.2738978932
H                 4.4439839676        1.0556830997       -3.0222068572
H                 3.6660022421        0.2094344897       -4.3748312496
H                 5.2064221732       -0.3974595495       -3.7130813195
H                 3.3307938493       -1.8037988565       -2.9507065197
H                 0.0791177095        0.5763247110       -2.6118954138
H                -1.5471591131        2.2632651699       -0.7743040725
H                -1.8362250028        2.1434679327       -2.5153418393
H                -2.5965052872       -0.2017841107       -2.2718594609
H                -2.2745492296       -0.1607973689       -0.5357303596
H                -4.8325990446       -0.0696154165       -2.7837948953
H                -5.9421867446        0.7453304319       -1.6819754739
H                -6.1157237738       -1.6366021953       -1.1950565027
H                -4.3736441569       -1.8365300853       -1.1768229853
H                -5.9645719496       -2.7999890982        1.0939306084
H                -5.8820573319       -2.4170889242        3.5400434895
H                -5.0029990328       -0.2572933467        4.4257823589
H                -4.2315558923        1.4924413016        2.8501296615
H                -3.3558916898        1.9732292152        0.5398396550
H                -5.0303787399        2.2101003180        0.0767257904
H                 2.5612276095        0.7863296186        0.7454080219
H                 5.3933008896       -2.3594715855        1.0446771262
H                 6.7863015024       -2.1859780109        3.0807238866
H                 7.0304433611       -0.0058142874        4.2570579697
H                 5.8674518590        2.0059541265        3.3600665495
H                 4.5038382725        1.8429592398        1.3098480875



