%chk=./calculation/no_transfer_pubchem_sampling_3_b3lyp/44816065.chk
%nprocshared=7
%mem=6GB
#p b3lyp/6-31g(d) opt SCF=XQC 

Gaussian input prepared by ASE

0 1
O                 9.5016465913        3.0669070817        3.0710282901
C                 8.8788638955        1.8379938149        2.7874489333
C                 9.2547711769        1.2696349777        1.4403244796
C                 8.2937894720        0.9327779365        0.5030410607
C                 8.6384969640        0.3924251539       -0.7286976640
C                 7.5587577789       -0.0133135767       -1.6975104125
O                 8.0821282575       -0.0295111319       -3.0085575918
C                 7.0190394550       -1.4139319064       -1.3075849498
N                 6.3593644649       -1.3781002906       -0.0168793397
C                 4.9401362834       -1.6581623757       -0.0224755706
C                 4.1449559431       -0.4484953060       -0.5440941954
C                 2.6817327952       -0.7098269735       -0.4881529904
C                 1.7588761131       -0.2228240449        0.3821785868
C                 0.4581371810       -0.7313715765        0.1656817431
C                 0.3938077305       -1.6135003357       -0.8653401325
C                -0.8099906633       -2.3148537240       -1.3992111207
N                -1.7713517937       -1.3313340733       -1.8657063999
C                -3.0226228631       -1.8873338125       -2.3282306568
C                -4.0259637140       -0.7585366071       -2.5968909295
C                -4.3210855944       -0.0072589031       -1.3483912445
C                -3.5695880107        0.7818450870       -0.5341505771
N                -4.3385385500        1.1835065771        0.5215538712
C                -5.4999344607        0.6402778870        0.3222579578
C                -6.6723130292        0.8084712235        1.2400897529
O                -6.1921020670        1.2293662227        2.5016851422
C                -7.6633982734        1.8414430198        0.7049407171
C                -7.5346410153        2.4501284756       -0.5337872884
C                -8.4736290398        3.3788037159       -0.9521775458
C                -9.5406763502        3.7080469615       -0.1360276377
C                -9.6676354883        3.1073265407        1.1058744311
C                -8.7345745228        2.1776916184        1.5233590820
C                -7.3783591690       -0.5349676095        1.3680377771
C                -7.2169742689       -1.3094287646        2.5061677670
C                -7.8464762205       -2.5381074504        2.6050683485
C                -8.6330287103       -3.0025874621        1.5656354665
C                -8.7920885983       -2.2314159092        0.4261585997
C                -8.1699048715       -1.0005050105        0.3261881908
O                -5.5606122935       -0.0987996151       -0.7936539613
S                 1.9490403143       -1.8236846154       -1.6016998937
C                 9.9763538848        0.1939980493       -1.0285532802
C                10.9522395904        0.5410664228       -0.1128214069
C                10.6018662837        1.0737453972        1.1182887611
O                11.5545867152        1.4199109768        2.0426576790
H                10.4536415247        2.9285590992        2.9853453889
H                 9.1320414579        1.0982222936        3.5657166334
H                 7.8040226340        2.0262611272        2.8268536648
H                 7.2522123976        1.0815300717        0.7408197281
H                 6.7302755783        0.7079334227       -1.6259038798
H                 7.3854423917       -0.2996761077       -3.6160193005
H                 6.3211998760       -1.7482590329       -2.0884150362
H                 7.8685313525       -2.1047947138       -1.3052569336
H                 6.8393788259       -1.9579715886        0.6565602051
H                 4.6799780458       -2.5392474596       -0.6361343632
H                 4.6291463959       -1.8594004316        1.0052105745
H                 4.4465416070       -0.2394512997       -1.5723629951
H                 4.3847349848        0.4205151601        0.0698636848
H                 1.9988756060        0.4841748040        1.1563334315
H                -0.4013542462       -0.4555617679        0.7490073623
H                -0.5056467070       -3.0294128249       -2.1850524357
H                -1.2920512553       -2.8838659862       -0.5952838887
H                -1.3526992954       -0.7568664992       -2.5913885057
H                -3.4108691850       -2.5353763904       -1.5365394101
H                -2.9125214094       -2.4988787973       -3.2422764010
H                -3.6101515809       -0.0797033238       -3.3454770261
H                -4.9563781154       -1.1794097192       -2.9796613989
H                -2.5471088428        1.0777642003       -0.6276835427
H                -5.3688865802        1.7129847145        2.3513050073
H                -6.7045924439        2.2084815378       -1.1813669858
H                -8.3664684571        3.8474150209       -1.9196404239
H               -10.2703578114        4.4329922687       -0.4655644843
H               -10.4968110887        3.3630885754        1.7488105190
H                -8.8176938415        1.7055647826        2.4903693489
H                -6.6041229541       -0.9353687191        3.3110882653
H                -7.7195746916       -3.1343039436        3.4968821753
H                -9.1229846197       -3.9623059806        1.6421719671
H                -9.4063810117       -2.5887364609       -0.3874702792
H                -8.2994650924       -0.3980990981       -0.5608349900
H                10.2497389558       -0.2164396586       -1.9870252717
H                11.9980089448        0.3951480146       -0.3517746446
H                12.4292453281        1.2227076447        1.6877253920



