%chk=calculation/no_transfer_pubchem_sampling_3_b3lyp/44816065_rwf.chk
%rwf=calculation/no_transfer_pubchem_sampling_3_b3lyp/44816065_rwf.rwf
%nprocshared=14
%mem=3GB
#p b3lyp/6-31g(d) 6D 10F nosymm GFInput td=(50-50,nstate=2) SCF=XQC 

Gaussian input prepared by ASE

0 1
O                11.6977399619        2.6262044672        2.8325309755
C                10.3936676555        2.1279956771        2.5616365311
C                10.3562878459        1.0901374534        1.4569380971
C                 9.5816768987        1.2528108384        0.3072147523
C                 9.5382811475        0.2885452252       -0.7094780770
C                 8.6471683278        0.4821525902       -1.9195303358
O                 9.2968855734       -0.1175636513       -3.0414999446
C                 7.2513193916       -0.1487353993       -1.7299049417
N                 6.5197275636        0.4757178329       -0.6341266877
C                 5.1528990888       -0.0175295456       -0.4553239843
C                 4.1614589054        0.6877632330       -1.4049891701
C                 2.7353877804        0.2590814094       -1.2087403459
C                 1.7106785404        0.9504963246       -0.6201524928
C                 0.4776029994        0.2299555457       -0.5696999031
C                 0.5564079522       -1.0189815297       -1.1233759951
C                -0.5166929157       -2.0689534679       -1.2338587231
N                -1.8398390980       -1.4526633226       -1.3290732893
C                -2.9138544744       -2.4289696249       -1.4942634531
C                -4.2852004995       -1.7551757522       -1.6182905463
C                -4.7132613692       -1.0123824755       -0.3957154820
C                -4.1103992461       -0.4572728855        0.6876439968
N                -5.0757236016        0.0955318648        1.5240755397
C                -6.2024497955       -0.1352825282        0.9256052809
C                -7.5640705519        0.2942739959        1.4470418748
O                -7.3857463274        0.5647108315        2.8345581471
C                -8.0649559322        1.5699851281        0.7349331041
C                -7.7128646510        1.9011264752       -0.5784257825
C                -8.2126177745        3.0612711152       -1.1767213856
C                -9.0688202308        3.9037576446       -0.4695229096
C                -9.4228939087        3.5791743522        0.8423753446
C                -8.9246901205        2.4228606219        1.4397538609
C                -8.5669873682       -0.8696377900        1.3206379481
C                -8.6816663949       -1.7898494487        2.3696241689
C                -9.5537394759       -2.8738192638        2.2664597244
C               -10.3173625071       -3.0562822718        1.1124066226
C               -10.2040522825       -2.1438926308        0.0628404039
C                -9.3359748662       -1.0560214280        0.1666677166
O                -6.0750440013       -0.8046023739       -0.2465047498
S                 2.1715604064       -1.3203487232       -1.7227957068
C                10.3143056555       -0.8656303855       -0.5663085530
C                11.1078491666       -1.0484884764        0.5657721709
C                11.1236228084       -0.0798230961        1.5686500047
O                11.8875661471       -0.2125661311        2.7089588526
H                12.2226156846        1.8594985110        3.1156223980
H                 9.9412695641        1.7070433014        3.4751318523
H                 9.7913364409        2.9936107192        2.2699224520
H                 8.9970857253        2.1641883032        0.1986555600
H                 8.5056475887        1.5612594686       -2.0830364518
H                 8.7147212160       -0.0062771466       -3.8092698969
H                 6.6828372689        0.0086831202       -2.6576568983
H                 7.3763528255       -1.2418559779       -1.6138506340
H                 7.0430286502        0.3261813498        0.2256816672
H                 5.0746399231       -1.1120488522       -0.5912635082
H                 4.8483578170        0.1946184719        0.5755138017
H                 4.4684785804        0.5200036793       -2.4457833203
H                 4.2305970490        1.7672620059       -1.2302360414
H                 1.8330160241        1.9583648217       -0.2350168245
H                -0.4388123717        0.6214697588       -0.1429129838
H                -0.2947301973       -2.7417689923       -2.0849134913
H                -0.5156830716       -2.7085268203       -0.3387474898
H                -1.8413966964       -0.8062535550       -2.1180258277
H                -2.9113102490       -3.0864818722       -0.6158496755
H                -2.7649780506       -3.0788390706       -2.3776782543
H                -4.2833014763       -1.0835445710       -2.4914697677
H                -5.0359975143       -2.5243600933       -1.8375020863
H                -3.0562830834       -0.4191639709        0.9131620823
H                -6.4534216235        0.8327749189        2.9432484165
H                -7.0469711414        1.2576135021       -1.1445435541
H                -7.9248837884        3.3051996682       -2.1961909571
H                -9.4550262399        4.8073462435       -0.9337490033
H               -10.0869516126        4.2308766965        1.4044308240
H                -9.1850085788        2.1761672111        2.4632764422
H                -8.0936108407       -1.6383558410        3.2673122331
H                -9.6375580512       -3.5755103653        3.0925197504
H               -10.9983174502       -3.8997888662        1.0334299448
H               -10.7976718835       -2.2719424224       -0.8386996191
H                -9.2675541933       -0.3459658079       -0.6510683241
H                10.3135684608       -1.6102564575       -1.3550512933
H                11.7192683275       -1.9441141898        0.6661231379
H                12.3934585444       -1.0384583039        2.6604656821



