%chk=calculation/no_transfer_pubchem_sampling_3_b3lyp/45989398_rwf.chk
%rwf=calculation/no_transfer_pubchem_sampling_3_b3lyp/45989398_rwf.rwf
%nprocshared=14
%mem=3GB
#p b3lyp/6-31g(d) 6D 10F nosymm GFInput td=(50-50,nstate=2) SCF=XQC 

Gaussian input prepared by ASE

0 1
C                 2.0196227263       -4.8594620630       -0.3726439185
C                 2.4485215142       -3.7341431756        0.1971512776
C                 2.3395464596       -2.3737188227       -0.4421998302
N                 1.6320981542       -1.4104409309        0.4208381792
C                 0.2601201413       -1.2894560977        0.6047593354
C                -0.7694664523       -2.0658945220       -0.1750586803
N                -1.8332793870       -1.2431460693       -0.7713131838
C                -2.9144457121       -0.9712885450        0.0410057331
O                -2.9048747733       -1.3257074567        1.2199228417
C                -4.1038198759       -0.1987592872       -0.5448070248
C                -5.3934060255       -0.4009025813        0.2919245593
C                -6.0824415948        0.9730202157        0.3063932066
C                -4.9008702868        1.9475213993        0.4120168175
C                -3.8463743599        1.3542419232       -0.5449182570
C                -1.6978285428       -0.8103895425       -2.1763104892
C                -0.3730355977       -0.0763549793       -2.4322838569
C                -1.9097685462       -1.9758230504       -3.1563310580
C                 0.1048654864       -0.3594735691        1.6117731580
N                 1.3207635896        0.0876934867        2.0575254771
C                 2.2051466375       -0.5563428796        1.3262463484
S                 3.9700351522       -0.4531951950        1.6200651546
O                 4.3548588355       -1.5629777661        2.5124754071
O                 4.6520185379       -0.3198870170        0.3173929861
C                 4.1356983005        1.1062391453        2.5780247653
C                 4.0312671679        2.3682078966        1.7692079597
C                 5.1346690054        2.8352360832        1.0416586893
C                 5.0478046600        4.0171623299        0.3077794205
C                 3.8567832859        4.7462511968        0.2930873312
C                 2.7522658798        4.2845587337        1.0111975736
C                 2.8365787925        3.0999608368        1.7431062649
H                 1.5383573361       -4.8640065944       -1.3492682713
H                 2.1445445701       -5.8248737556        0.1091344792
H                 2.9352335034       -3.7514515321        1.1712718647
H                 3.3289789642       -1.9500966376       -0.6349272384
H                 1.8159191231       -2.4315943757       -1.4005738515
H                -1.2549768343       -2.7811771432        0.4937898014
H                -0.2921307166       -2.6379171367       -0.9728247362
H                -4.2861840060       -0.5346752567       -1.5700419714
H                -5.1060096465       -0.6918941006        1.3063537721
H                -6.0247872096       -1.1978385463       -0.1155397701
H                -6.6279509582        1.1442392034       -0.6322199005
H                -6.8020217252        1.0767591492        1.1258893984
H                -4.5150416922        1.9451418391        1.4391780149
H                -5.1598685894        2.9817994630        0.1602999415
H                -2.8243986776        1.6088672315       -0.2442866005
H                -3.9891472734        1.7505610215       -1.5575293893
H                -2.4912105281       -0.0830258890       -2.3492327494
H                -0.3750256173        0.3396773178       -3.4457807115
H                -0.2322413472        0.7433402252       -1.7217569995
H                 0.4922988058       -0.7432018518       -2.3573080441
H                -1.1374396963       -2.7459855032       -3.0460362201
H                -1.8679114939       -1.6155345033       -4.1904347977
H                -2.8838858616       -2.4495219869       -2.9955193324
H                -0.8246841198       -0.0087765680        2.0352536146
H                 5.1265335676        0.9713027203        3.0248337719
H                 3.3801451491        1.0350287624        3.3628609549
H                 6.0606558956        2.2669043194        1.0475332798
H                 5.9107266363        4.3697980318       -0.2505865758
H                 3.7908294804        5.6705234180       -0.2749175541
H                 1.8226198316        4.8474844524        1.0032739261
H                 1.9750169570        2.7274165290        2.2887027064



