%chk=./calculation/no_transfer_pubchem_sampling_3_b3lyp/45989398.chk
%nprocshared=7
%mem=6GB
#p b3lyp/6-31g(d) opt SCF=XQC 

Gaussian input prepared by ASE

0 1
C                 2.6894899580       -4.9623821491        0.1868106112
C                 2.9297962637       -3.7000292052        0.4825074231
C                 2.4145658977       -2.5387638560       -0.3212074024
N                 1.6193191565       -1.6694098474        0.5144582378
C                 0.2544945617       -1.5713572019        0.6103400979
C                -0.7374470955       -2.1433702694       -0.3470342281
N                -1.5724773157       -1.0822803554       -0.9011530585
C                -2.6928352432       -0.7730268604       -0.1918896617
O                -2.9956653659       -1.4176462530        0.7942850251
C                -3.5198261652        0.4225462215       -0.6568640150
C                -4.8587979358        0.4944242299        0.1008948438
C                -4.9621232483        1.9234060953        0.6303246625
C                -3.5095197152        2.2888335583        0.9092346164
C                -2.7748437172        1.7348570276       -0.3096843965
C                -1.1289763706       -0.4369019834       -2.1274556298
C                 0.3138116265        0.0633680243       -2.0321703244
C                -1.3128821425       -1.3709793732       -3.3286615428
C                 0.0150135706       -0.7403064742        1.6785832641
N                 1.1827301286       -0.3360635497        2.2282133447
C                 2.1221726984       -0.9115521018        1.5218289716
S                 3.8457675985       -0.5173766865        1.7406974952
O                 4.4282494357       -1.3740254948        2.7377229884
O                 4.4615820916       -0.5433596846        0.4352319628
C                 3.7894901515        1.2032450297        2.3545565859
C                 2.8915785049        1.9820599302        1.4604725479
C                 3.2487087933        2.1987312363        0.1339065824
C                 2.3808810820        2.8478092890       -0.7266418691
C                 1.1494750006        3.2902378493       -0.2718867430
C                 0.7931868719        3.0891137851        1.0512210056
C                 1.6583986588        2.4387708645        1.9128932776
H                 2.0985374777       -5.2471854339       -0.6694377422
H                 3.0832738545       -5.7676473046        0.7814643203
H                 3.5240673276       -3.4207940547        1.3418579937
H                 3.2649508241       -1.9574286223       -0.6943581576
H                 1.8115573259       -2.8938197646       -1.1594338735
H                -1.4064776933       -2.8243945718        0.1897899090
H                -0.2525920545       -2.6860810123       -1.1570881609
H                -3.7022850450        0.3405040205       -1.7297645454
H                -4.8204745476       -0.2101575976        0.9330696698
H                -5.7000565366        0.2259100602       -0.5363040702
H                -5.3707678712        2.5856966810       -0.1358522435
H                -5.5923698472        1.9910237197        1.5152409511
H                -3.1685984311        1.7775422428        1.8101051576
H                -3.3552222830        3.3600574946        1.0342344985
H                -1.7176362544        1.5677611225       -0.1018689499
H                -2.8549983540        2.4400296679       -1.1395895894
H                -1.7607006615        0.4370521066       -2.2835532492
H                 0.5245898672        0.7086022570       -2.8813563963
H                 0.4638937533        0.6390565095       -1.1217589932
H                 1.0276540362       -0.7542330882       -2.0494268482
H                -0.6383626952       -2.2220905424       -3.2812420201
H                -1.1083420743       -0.8300113808       -4.2486023511
H                -2.3342278148       -1.7428805150       -3.3621929408
H                -0.9276252373       -0.4255882424        2.0754659519
H                 4.8231811792        1.5411792999        2.3308602214
H                 3.4218199064        1.1405723943        3.3734596633
H                 4.1998367844        1.8367767618       -0.2245842840
H                 2.6653559436        3.0051313501       -1.7565412911
H                 0.4702242302        3.7912229933       -0.9461082894
H                -0.1643909472        3.4340916490        1.4120412327
H                 1.3728651023        2.2715320050        2.9392167541



