%chk=./calculation/no_transfer_pubchem_sampling_3_b3lyp/46028124.chk
%nprocshared=7
%mem=6GB
#p b3lyp/6-31g(d) opt SCF=XQC 

Gaussian input prepared by ASE

0 1
C                 0.8097724658        2.2371446386        2.3082158700
C                 0.4371041320        1.0303088996        1.4575741536
C                 0.4927930134        1.3854430565       -0.0316102204
N                 0.1830962527        0.2752434283       -0.9090889200
C                -1.1685205132        0.1945184824       -1.4570136635
C                -2.1701619734       -0.1456424193       -0.4016517674
C                -2.8580748343        0.7613234762        0.4505281600
C                -2.9326336381        2.2200869714        0.3711434686
C                -2.7197213449        2.9908818966        1.5117178110
C                -2.7778689050        4.3706715748        1.4573177392
C                -3.0620456890        5.0111888010        0.2619108979
C                -3.3073705904        4.2670637395       -0.8784930266
C                -3.2452292916        2.8883070105       -0.8082195958
F                -3.5229085034        2.1805758845       -1.9276057721
N                -3.4592202765        0.1364764011        1.4345176815
O                -3.2225736156       -1.1980312648        1.2652045723
C                -2.4536862271       -1.3776511927        0.1703341600
N                -2.1076981372       -2.6428893183       -0.1392357676
C                -2.3701620472       -3.6969411927        0.8197520701
C                -1.5319682461       -4.9060002634        0.4211593666
O                -1.9132641581       -5.4333921444       -0.8336648128
C                -2.4665960819       -4.4705440640       -1.7069250003
C                -1.8839287985       -3.0724387215       -1.5113997840
C                 1.0695375494       -0.6995451569       -1.2054786440
O                 0.7955617140       -1.6509714871       -1.9192029040
C                 2.4411301645       -0.5643472552       -0.6152446991
C                 2.8148234825       -1.3868758970        0.4426316776
C                 4.0990035956       -1.3086685294        0.9451500613
C                 5.0237980231       -0.4307973132        0.4035212676
C                 4.6615390168        0.3780173084       -0.6681103689
O                 5.4818586454        1.2707163702       -1.2864969209
C                 6.8170652361        1.3708756409       -0.8539737108
C                 3.3628984182        0.3027034741       -1.1736903566
H                 0.1355854958        3.0673023182        2.1082144416
H                 0.7493948817        1.9900237665        3.3648339951
H                 1.8259231412        2.5568060087        2.0875688575
H                 1.1322711710        0.2131278995        1.6565931926
H                -0.5657863279        0.6924655048        1.7192343617
H                -0.2259533945        2.1831416577       -0.2375677412
H                 1.4925737575        1.7617029024       -0.2648117295
H                -1.1380074427       -0.5677796902       -2.2353889356
H                -1.4083385430        1.1567550688       -1.9135708247
H                -2.5118094622        2.4822775338        2.4395605422
H                -2.6040577269        4.9500591541        2.3512866721
H                -3.1053695201        6.0884824418        0.2169946847
H                -3.5550389241        4.7365235802       -1.8175549060
H                -2.0827178724       -3.3480386413        1.8142114093
H                -3.4352917161       -3.9649609903        0.8486579882
H                -0.4727138496       -4.6106767917        0.3907054094
H                -1.6512481742       -5.7145283858        1.1470392676
H                -2.2583201137       -4.8207429663       -2.7205882721
H                -3.5589374778       -4.4323556357       -1.5707617822
H                -0.8117562252       -3.0671550468       -1.7378648343
H                -2.3912962066       -2.3881143388       -2.1949443259
H                 2.1025132845       -2.0835137011        0.8586358679
H                 4.3931070247       -1.9408873975        1.7699113810
H                 6.0191441360       -0.3940042645        0.8170149567
H                 6.8792635532        1.7048716331        0.1869845939
H                 7.3475177245        0.4197458976       -0.9637814021
H                 7.2797113739        2.1168011270       -1.4982288324
H                 3.1032925949        0.9258565211       -2.0159600581



