%chk=calculation/no_transfer_pubchem_sampling_3_b3lyp/46028124_rwf.chk
%rwf=calculation/no_transfer_pubchem_sampling_3_b3lyp/46028124_rwf.rwf
%nprocshared=14
%mem=3GB
#p b3lyp/6-31g(d) 6D 10F nosymm GFInput td=(50-50,nstate=2) SCF=XQC 

Gaussian input prepared by ASE

0 1
C                 0.7662630421        1.8786425731        2.6792715247
C                 0.4981919696        0.7527039602        1.6752926817
C                 0.5520979960        1.2615227436        0.2265863956
N                 0.2932879465        0.2341257534       -0.7941519695
C                -1.0633492997        0.1772599707       -1.3871934630
C                -2.1808180874       -0.1004696171       -0.4142403417
C                -2.9630180183        0.8563805681        0.3112091363
C                -3.0154398455        2.3318236000        0.1918694959
C                -2.9998745609        3.1339700769        1.3464348197
C                -3.0875789317        4.5222203490        1.2656779728
C                -3.1986892704        5.1438552222        0.0197061038
C                -3.2307071846        4.3733631229       -1.1421360591
C                -3.1485659450        2.9909258553       -1.0343427441
F                -3.2097934462        2.2620370415       -2.1743534456
N                -3.7061079625        0.3116692917        1.2560044694
O                -3.4536539981       -1.0720220632        1.1602714114
C                -2.5631158120       -1.3020250260        0.1672942398
N                -2.2451525121       -2.6059259905       -0.0463020400
C                -2.6445120316       -3.6184564821        0.9361634875
C                -1.8244937680       -4.8826265348        0.6993025768
O                -1.9967367316       -5.4303589357       -0.6060887613
C                -2.4699443121       -4.5052934228       -1.5781985164
C                -1.9043272562       -3.0983190826       -1.3953846896
C                 1.2030922225       -0.7226691999       -1.1609171554
O                 0.9136109111       -1.6836462753       -1.8788988721
C                 2.6330248491       -0.5898845150       -0.6901940051
C                 3.1994137664       -1.6537387104        0.0293278514
C                 4.5410353225       -1.6007885629        0.3906452213
C                 5.3455694449       -0.5165423169        0.0246242337
C                 4.7867918998        0.5290768606       -0.7183339739
O                 5.4710096773        1.6288574239       -1.1501484995
C                 6.8550359073        1.7187214360       -0.8511775505
C                 3.4289084932        0.4904241013       -1.0682508244
H                 0.0216628883        2.6788943355        2.5873830764
H                 0.7289227917        1.5055968336        3.7084771184
H                 1.7560644111        2.3252147081        2.5230376505
H                 1.2437951211       -0.0421641648        1.7996940795
H                -0.4818769050        0.3023949116        1.8673950026
H                -0.1981251252        2.0454741233        0.0832991740
H                 1.5248375288        1.7241757720        0.0445516585
H                -1.0086654938       -0.5797766000       -2.1673861475
H                -1.2499724384        1.1355785115       -1.8774261140
H                -2.9215166076        2.6397641552        2.3090991915
H                -3.0696888561        5.1175225544        2.1736872430
H                -3.2634102314        6.2257966655       -0.0512813138
H                -3.3321655365        4.8191574305       -2.1261387264
H                -2.4483645989       -3.2373567409        1.9426659280
H                -3.7203901152       -3.8405905573        0.8779849995
H                -0.7604849586       -4.6557847221        0.8655694816
H                -2.1225212649       -5.6549463094        1.4176544375
H                -2.1621723218       -4.8961201304       -2.5530539318
H                -3.5709012620       -4.4677238172       -1.5643544122
H                -0.8221325994       -3.0819655024       -1.5517514738
H                -2.3598629381       -2.4387544572       -2.1427954873
H                 2.5877556429       -2.5126811055        0.2853844458
H                 4.9806496390       -2.4169062254        0.9578973677
H                 6.3907652828       -0.5029303126        0.3113066923
H                 7.0339427215        1.7461658786        0.2319972335
H                 7.4175014030        0.8830592550       -1.2880529752
H                 7.1967689755        2.6550623255       -1.2959553169
H                 3.0281343725        1.3090259696       -1.6582605920



