%chk=./calculation/no_transfer_pubchem_sampling_3_b3lyp/46922073.chk
%nprocshared=7
%mem=6GB
#p b3lyp/6-31g(d) opt SCF=XQC 

Gaussian input prepared by ASE

0 1
C                -3.1839057685       -0.6247268765        2.1732367778
C                -3.5702358353        0.6201181985        1.3736712654
N                -3.1283056169        0.5386200934       -0.0016661440
C                -4.0318745091       -0.0940303167       -0.9487869938
C                -5.0172297977        0.9070982930       -1.5434793382
C                -1.9285993215        0.9511105635       -0.4566021259
O                -1.6015905969        0.8580547381       -1.6221040873
C                -0.9955200289        1.5846776888        0.5773326826
S                 0.6862574883        1.5855771526       -0.0918382992
C                 0.8365576307       -0.1334620592       -0.3674802720
N                -0.0385871356       -0.9062982716        0.1904701624
C                 0.0627466411       -2.2325903200       -0.0687241307
C                -0.8037330250       -3.2475928402        0.4108279190
C                -0.4311058271       -4.4745770082       -0.0307871655
S                 0.9700065139       -4.4604598978       -1.0322882985
C                 1.0783748812       -2.7450568464       -0.8686975213
C                 2.0763940820       -1.9081476851       -1.4601934204
O                 3.0156884838       -2.2500062264       -2.1482034062
N                 1.8672653917       -0.5453539748       -1.1492756240
C                 2.8023324434        0.4150079225       -1.7027655910
C                 3.6960125225        1.0053235216       -0.6452293708
C                 4.2165921106        0.2281559891        0.3818746676
C                 5.0407046564        0.7810904215        1.3454961051
C                 5.3652266740        2.1262262574        1.2968424539
C                 4.8670915760        2.9200554926        0.2790857371
C                 4.0428741269        2.3502923280       -0.6723980721
F                 3.5665816584        3.1330318977       -1.6636508697
H                -2.1146612144       -0.8059922934        2.0988165690
H                -3.4521044485       -0.4961671223        3.2185654662
H                -3.7056427987       -1.4976174330        1.7881785725
H                -3.1562683430        1.5149392624        1.8422393078
H                -4.6583481907        0.7273354547        1.3672760395
H                -3.4211802869       -0.5217189226       -1.7466141703
H                -4.5638036479       -0.8993308568       -0.4369548318
H                -4.4745065710        1.6821322777       -2.0778479187
H                -5.6182308191        1.3736711133       -0.7654757711
H                -5.6814252279        0.4032224691       -2.2400249755
H                -1.2533772115        2.6328361296        0.7341045970
H                -0.9778223242        1.0470743801        1.5209252038
H                -1.6502603068       -3.0580901543        1.0430576146
H                -0.9074905499       -5.4129871966        0.1763181110
H                 2.2472400629        1.2059415660       -2.2158465806
H                 3.4047142739       -0.1395933315       -2.4323733011
H                 3.9758655765       -0.8241571613        0.4182900157
H                 5.4336807245        0.1582906355        2.1344752912
H                 6.0085489633        2.5583128192        2.0477652092
H                 5.1050529210        3.9697601288        0.2121245112



