%chk=calculation/no_transfer_pubchem_sampling_3_b3lyp/46922073_rwf.chk
%rwf=calculation/no_transfer_pubchem_sampling_3_b3lyp/46922073_rwf.rwf
%nprocshared=14
%mem=3GB
#p b3lyp/6-31g(d) 6D 10F nosymm GFInput td=(50-50,nstate=2) SCF=XQC 

Gaussian input prepared by ASE

0 1
C                -3.7003074639       -0.6786662976        2.0302195886
C                -3.8678571747        0.6724766070        1.3248157657
N                -3.5053824287        0.6396020889       -0.0933675592
C                -4.5386051173        0.2132418869       -1.0471683580
C                -5.3231534156        1.3871031692       -1.6381743656
C                -2.2687114136        0.9469621840       -0.5970856332
O                -2.0238042539        0.9020650153       -1.7956270045
C                -1.2091724355        1.3924772217        0.4316902120
S                 0.4718742709        1.4690833522       -0.2529187848
C                 0.8268799268       -0.2741357798       -0.3540430186
N                -0.0182779270       -1.1222877646        0.1602556540
C                 0.2961122513       -2.4514902813        0.0546681884
C                -0.5029591504       -3.5360400346        0.5435586008
C                 0.0773347023       -4.7461174390        0.2953659519
S                 1.6051920671       -4.6287201142       -0.5332657953
C                 1.4646755532       -2.8964398910       -0.5527823707
C                 2.4231202444       -1.9878980138       -1.1060993889
O                 3.4897374459       -2.2783378991       -1.6407007452
N                 2.0125741920       -0.6225212332       -0.9751621185
C                 2.9187988025        0.3790275152       -1.5862215026
C                 3.9139470872        0.9885614762       -0.6178403937
C                 4.8441304827        0.2018168815        0.0782257718
C                 5.7673847372        0.7793477373        0.9483827710
C                 5.7868143870        2.1644945977        1.1318822452
C                 4.8839517842        2.9709677912        0.4414422797
C                 3.9722885515        2.3684775934       -0.4177969167
F                 3.1067547527        3.1674241271       -1.0887382741
H                -2.6584759628       -1.0131304527        1.9875874449
H                -4.0006422666       -0.6024184328        3.0817429932
H                -4.3205540222       -1.4475158733        1.5563685696
H                -3.2814011156        1.4408719925        1.8354952961
H                -4.9116779623        1.0020027325        1.3892149162
H                -4.0435605066       -0.3435493537       -1.8452978202
H                -5.2108717447       -0.4747601369       -0.5220875362
H                -4.6507663032        2.0431496431       -2.1983852055
H                -5.8154468001        1.9771421990       -0.8559400717
H                -6.0972141272        1.0217450358       -2.3230386650
H                -1.4136999079        2.4194322720        0.7576825184
H                -1.1922492314        0.7468034170        1.3091994990
H                -1.4538547326       -3.3998812630        1.0447584567
H                -0.3090061435       -5.7240321897        0.5521695623
H                 2.3087701971        1.1518697467       -2.0547515065
H                 3.4513187881       -0.1656149092       -2.3678300466
H                 4.8409120397       -0.8713803471       -0.0847141695
H                 6.4768838677        0.1492809006        1.4767216334
H                 6.5064950989        2.6192621871        1.8067637541
H                 4.8717003768        4.0502483355        0.5524915779



