%chk=./calculation/no_transfer_pubchem_sampling_3_b3lyp/4911238.chk
%nprocshared=7
%mem=6GB
#p b3lyp/6-31g(d) opt SCF=XQC 

Gaussian input prepared by ASE

0 1
C                 2.7567124594        3.5868333413       -0.7630989925
C                 2.2650412815        2.4048567631       -1.5975089310
C                 3.1944428641        2.1463897404       -2.7810521034
C                 2.0391701331        1.1643216768       -0.7181794272
C                 1.4522445156       -0.0003101257       -1.5428443134
O                 2.2012011503       -0.8075928797       -2.0627335998
N                 0.1161207728       -0.0436534989       -1.7124789875
C                -0.4537765737       -1.2518766727       -2.2871257357
C                -1.0532092024       -2.0994826764       -1.1530820023
N                -2.0408062284       -1.3850470065       -0.3706434625
C                -3.3404660850       -1.2451402208       -1.0037554444
C                -4.3789424190       -0.8176343974        0.0019084377
C                -4.4262924651       -1.4419916136        1.2399551899
C                -5.3678057599       -1.0963081560        2.2041698532
C                -6.2629512941       -0.1066992630        1.8766534453
C                -6.2227081266        0.5258143060        0.6345880291
C                -5.2897955704        0.1924073017       -0.3162721321
O                -7.2155346275        1.4693018132        0.5710004895
C                -7.8882397463        1.4045821858        1.8102190121
O                -7.2838310479        0.4233695700        2.6237134738
C                -1.4791868392       -0.1438680372        0.1219989144
C                -0.8865599483        0.7238898074       -1.0058082830
N                 3.2236974009        0.6156351497       -0.0767391779
N                 4.4168870835        1.1139292482       -0.3457586680
N                 5.4603617760        0.6354014832        0.1311655429
C                 5.4190759654       -0.4671031574        0.9469627664
C                 6.6142758863       -1.0072642548        1.4369579328
C                 6.5728691088       -2.1127119997        2.2533375903
C                 5.3544805951       -2.7018476331        2.5992029556
C                 4.1705026553       -2.1836484850        2.1269407286
C                 4.1927063995       -1.0611334694        1.2978164233
C                 2.9759821888       -0.4728241017        0.7614388992
O                 1.8347093644       -0.8271453050        0.9943781436
H                 2.8041049311        4.4785293798       -1.3829794060
H                 3.7504886684        3.3860908463       -0.3737777492
H                 2.0834278384        3.7837401020        0.0694367645
H                 1.2721461683        2.6540365476       -1.9954399763
H                 2.8958967932        1.2501374011       -3.3177680713
H                 4.2170534252        2.0195392543       -2.4404845418
H                 3.1545719397        2.9903954691       -3.4658150722
H                 1.3586775614        1.4175339015        0.1024933775
H                 0.3437814378       -1.7971238911       -2.7914167159
H                -1.2196923919       -0.9697245644       -3.0157581496
H                -1.5005779981       -3.0089023267       -1.5579129149
H                -0.2409827171       -2.3771485969       -0.4743201277
H                -3.6153713505       -2.2311896724       -1.3935599454
H                -3.3479674603       -0.5413473320       -1.8518316775
H                -3.6985353508       -2.2078255393        1.4542700032
H                -5.4003880649       -1.5812094070        3.1650409543
H                -5.2717682351        0.6931090749       -1.2706937257
H                -8.9460437724        1.1444330334        1.6419798544
H                -7.8326421674        2.3846907164        2.3109376233
H                -0.6730685354       -0.4019625601        0.8152037702
H                -2.2528210786        0.4079322245        0.6583847159
H                -1.6685237193        0.9892991454       -1.7261523656
H                -0.4798409712        1.6490039786       -0.6050328366
H                 7.5442679515       -0.5398898838        1.1553330980
H                 7.4917817731       -2.5344796776        2.6331960290
H                 5.3457771227       -3.5701087048        3.2409135887
H                 3.2158675349       -2.6210063516        2.3765269296



