%chk=calculation/no_transfer_pubchem_sampling_3_b3lyp/50744589_rwf.chk
%rwf=calculation/no_transfer_pubchem_sampling_3_b3lyp/50744589_rwf.rwf
%nprocshared=14
%mem=3GB
#p b3lyp/6-31g(d) 6D 10F nosymm GFInput td=(50-50,nstate=2) SCF=XQC 

Gaussian input prepared by ASE

0 1
C                -3.5679199842       -4.0723144489       -2.5788386327
C                -3.6487598319       -2.5466844970       -2.6543340653
N                -2.6300829185       -1.8777468796       -1.8448164867
C                -2.3605946688       -0.5151689261       -2.3208593024
C                -1.4919171638        0.2381127263       -1.3165934339
C                -2.2572294770        0.4879038679        0.0161983798
C                -3.3322433843       -0.6162877458        0.2122343650
C                -2.8660050234       -1.9481484040       -0.3882834173
N                -1.3140564398        0.4876050989        1.1473902483
C                -1.4182164390        1.6469351041        1.6975837175
S                -0.6070527090        2.1439262171        3.1800860076
C                 0.1065713868        0.5502884430        3.7650279894
C                 1.4975082579        0.2234831941        3.2062758450
O                 2.5014855810        0.4535199598        3.8676734654
N                 1.4667931444       -0.3467798546        1.9639168024
C                 2.5524571574       -0.7872663226        1.1768468562
C                 2.2548801105       -1.4547120936       -0.0200090855
C                 3.2765967920       -1.9089958976       -0.8494847287
C                 4.6239957420       -1.7230613889       -0.5184538258
C                 5.7317180203       -2.2275770504       -1.4330672564
C                 6.5978641281       -3.3020439492       -0.7484282313
C                 6.6035812985       -1.0765725095       -1.9700040358
C                 4.9031495106       -1.0603860723        0.6851640606
C                 3.8975569341       -0.5940450531        1.5292703962
C                -2.4144173880        2.4952643048        0.9471561894
C                -2.8352088353        3.8801262149        1.2273161927
C                -1.9805495255        4.8213736837        1.8231711998
C                -2.4044531973        6.1301801637        2.0460798618
C                -3.6925928234        6.4884810791        1.6682778023
F                -4.1110090993        7.7493659588        1.8873022936
C                -4.5644333975        5.5842818505        1.0672614514
C                -4.1276628626        4.2836504045        0.8458094763
N                -2.9057792680        1.7952507839       -0.0165886908
H                -3.7496377817       -4.4457294130       -1.5647908023
H                -2.5760656684       -4.4159723876       -2.8901810846
H                -4.3190399894       -4.5263604156       -3.2355880200
H                -4.6731096756       -2.2097321008       -2.3951618003
H                -3.4836539645       -2.2405417402       -3.6946562367
H                -3.2858814235        0.0645369421       -2.5033949378
H                -1.8380947572       -0.5826484816       -3.2834041414
H                -0.6000710223       -0.3577790858       -1.1011841217
H                -1.1615811109        1.1961915003       -1.7276107960
H                -4.2492889161       -0.2831901379       -0.2839528658
H                -3.5539214785       -0.7224222551        1.2793354535
H                -1.9491027052       -2.2716962487        0.1245251034
H                -3.6190816493       -2.7160358493       -0.1841817548
H                -0.6262977266       -0.2331212516        3.5531593235
H                 0.2153526949        0.6748943205        4.8435611140
H                 0.5427778069       -0.3983157385        1.5331263871
H                 1.2175678741       -1.6309906218       -0.2960423776
H                 3.0172662139       -2.4230850613       -1.7725601098
H                 5.2447804250       -2.7006842438       -2.2972335356
H                 7.3518146473       -3.6927544199       -1.4425329410
H                 5.9858367301       -4.1411566328       -0.4001200715
H                 7.1264030243       -2.8920279795        0.1204277504
H                 7.1324106233       -0.5656478296       -1.1565579409
H                 7.3576882613       -1.4554721852       -2.6704298077
H                 5.9957933126       -0.3298233742       -2.4925402235
H                 5.9365690336       -0.8972567743        0.9820458620
H                 4.1378264332       -0.0882569453        2.4539026890
H                -0.9653749238        4.5492680695        2.0927615604
H                -1.7516780066        6.8683382526        2.4994602192
H                -5.5614812885        5.9066494016        0.7860683837
H                -4.7827016188        3.5588627249        0.3744423143



