%chk=calculation/no_transfer_pubchem_sampling_3_b3lyp/56936062_rwf.chk
%rwf=calculation/no_transfer_pubchem_sampling_3_b3lyp/56936062_rwf.rwf
%nprocshared=14
%mem=3GB
#p b3lyp/6-31g(d) 6D 10F nosymm GFInput td=(50-50,nstate=2) SCF=XQC 

Gaussian input prepared by ASE

0 1
C                 3.8989881529        2.4130564534       -0.4240947439
C                 3.0227239817        1.3058476683        0.0846832039
C                 1.7191987018        1.1689608200       -0.2168198412
C                 0.8095602121        0.1139265966        0.2451959583
C                 1.4117372286       -0.9275913951        1.1590618803
C                -0.4772760732        0.1817603377       -0.1950336467
C                -1.6800125748       -0.6336807857        0.0096044805
C                -1.6649250331       -1.8695327561        0.8808711353
C                -2.8032256099       -0.2170789994       -0.6254969464
C                -4.1779648386       -0.8160154350       -0.6250363513
H                 4.3248467550        2.9993619837        0.4024345883
H                 4.7512333551        2.0193434383       -0.9958679891
H                 3.3452785893        3.0993925749       -1.0739662111
H                 3.5063057958        0.5821496562        0.7393282333
H                 1.2714479478        1.9146920497       -0.8759125210
H                 1.8236671163       -0.4526947056        2.0592444849
H                 0.7079499148       -1.6905883969        1.4790631570
H                 2.2502426853       -1.4324823379        0.6615283966
H                -0.6768438535        1.0302098407       -0.8506878522
H                -0.9509576800       -2.6129662180        0.5077780359
H                -2.6435884624       -2.3513669282        0.9203163371
H                -1.3789321120       -1.6287707681        1.9113369942
H                -2.7176555719        0.6853082276       -1.2322725282
H                -4.9151777131       -0.0908234567       -0.2521170999
H                -4.2676484090       -1.7200685078       -0.0181533045
H                -4.4889755053       -1.0703479568       -1.6482818500



