%chk=./calculation/no_transfer_pubchem_sampling_3_b3lyp/56936062.chk
%nprocshared=7
%mem=6GB
#p b3lyp/6-31g(d) opt SCF=XQC 

Gaussian input prepared by ASE

0 1
C                 3.9270379223        2.3874468402       -0.1690654748
C                 3.0099291857        1.2426505498        0.0977448068
C                 1.7047551467        1.2555372101       -0.1720045003
C                 0.7570697696        0.1847213726        0.0831216849
C                 1.3052825194       -1.1297212662        0.5565039131
C                -0.5480464399        0.4145046760       -0.1544410688
C                -1.6986965331       -0.4512498758        0.0830530601
C                -1.7412138750       -1.2925957423        1.3324390473
C                -2.7199086301       -0.4161165507       -0.7799466449
C                -3.9767088294       -1.2175132904       -0.7086264789
H                 4.3937046511        2.7224123406        0.7579213978
H                 4.7266574354        2.0814724182       -0.8446009978
H                 3.3932444714        3.2235676563       -0.6144169204
H                 3.4785365419        0.3769304073        0.5442873138
H                 1.2785551823        2.1540236665       -0.6031246493
H                 1.6026805165       -1.0746407058        1.6039201360
H                 0.5776748795       -1.9244628163        0.4367923627
H                 2.1864797460       -1.3875124895       -0.0286690107
H                -0.8040220902        1.3685405120       -0.6025176679
H                -1.6320567006       -2.3530802158        1.1052918521
H                -2.6965781819       -1.1558964968        1.8369209644
H                -0.9540858777       -0.9977715686        2.0192293230
H                -2.6484399571        0.2352089942       -1.6422246795
H                -4.8294229626       -0.5596673500       -0.5320294679
H                -3.9440704118       -1.9630054607        0.0796785047
H                -4.1483604784       -1.7237818150       -1.6585308054



