%chk=./calculation/no_transfer_pubchem_sampling_3_b3lyp/57842628.chk
%nprocshared=7
%mem=6GB
#p b3lyp/6-31g(d) opt SCF=XQC 

Gaussian input prepared by ASE

0 1
C                -4.9607553492       -2.9727776850        1.2953983809
C                -3.4954674556       -2.6116621124        1.1864641297
S                -2.8302346709       -3.4557559402       -0.2926133839
O                -2.9563695787       -4.8716224159       -0.0842793780
O                -3.4868337717       -2.9130168135       -1.4599277532
C                -1.0688152459       -3.0622865042       -0.2742453838
C                -0.3305700460       -3.8429701477        0.5994985441
C                 1.0256170260       -3.6453296337        0.7641997608
C                 1.6539613018       -2.6397888916        0.0322240754
N                 3.0139161220       -2.3643729811        0.1414756292
C                 3.8758208033       -2.7424770373        1.1342280427
O                 3.6331962992       -3.5634848222        1.9855958747
C                 5.2178049090       -2.0043204733        1.0494204229
O                 5.1174138057       -0.6331843172        1.3875832344
C                 4.3317712699        0.1490369788        0.5469817339
C                 4.8149629493        0.5575730994       -0.7007596653
C                 6.2076663127        0.2151798425       -1.1434252469
C                 3.9794611745        1.2968590129       -1.5257617087
C                 2.6825029598        1.6477623188       -1.1553009403
B                 1.7092187004        2.4342964678       -2.1521000630
O                 2.2008520617        3.2160824859       -3.1475589130
O                 0.3730086740        2.3374767190       -2.0805104011
C                 2.2557001506        1.2688507902        0.1153222338
C                 3.0576298072        0.5346493686        0.9766872850
C                 2.5461504626        0.1472954724        2.3299269808
C                 0.9063697964       -1.8627752051       -0.8530926542
C                -0.4562961026       -2.0571239393       -1.0171050413
C                -1.2234046184       -1.1741909197       -1.9701393336
N                -2.3125850005       -0.4794432598       -1.3183027897
C                -2.0889858085        0.4627274330       -0.3903801161
O                -0.9998635143        0.9434497959       -0.1398238122
O                -3.2295109704        0.8037305515        0.2385816128
C                -3.1823948936        1.9614995456        1.0853216205
C                -3.6174928738        3.1898609564        0.3297975420
C                -4.8937564663        3.7082962315        0.5028212581
C                -5.2996758866        4.8203504907       -0.2138744522
C                -4.4362657688        5.4166837652       -1.1171759801
C                -3.1650644316        4.8991812572       -1.2994338281
C                -2.7545586294        3.7920417424       -0.5783163812
H                -5.0629186969       -4.0539187342        1.3533840402
H                -5.4114930578       -2.5233792227        2.1777228982
H                -5.4899832178       -2.6258355765        0.4109933782
H                -3.3418379004       -1.5449112249        1.0535907663
H                -2.9155567361       -2.9778129229        2.0291854672
H                -0.8400492066       -4.6299244298        1.1326161805
H                 1.5953339123       -4.2479752902        1.4509097231
H                 3.3355367289       -1.6297763572       -0.4779895321
H                 5.8953722873       -2.4333387332        1.7904660929
H                 5.6392855203       -2.1431522449        0.0438007428
H                 6.2104678755       -0.6667720866       -1.7869735771
H                 6.6312214616        1.0395234407       -1.7130336795
H                 6.8431107729        0.0222502144       -0.2822018949
H                 4.3566197434        1.5889700285       -2.4979087712
H                 3.1525992508        3.2948461637       -3.1751385219
H                 0.0051906475        1.8101797447       -1.3569667491
H                 1.2624436460        1.5340767304        0.4436674923
H                 1.5210420239       -0.2120153446        2.2558169707
H                 3.1678046974       -0.6221697125        2.7801575996
H                 2.5536246452        1.0156064126        2.9879679343
H                 1.3953347197       -1.0766298506       -1.4111571392
H                -1.6635874687       -1.7787290577       -2.7643803978
H                -0.5469231623       -0.4318804599       -2.4030816992
H                -3.2169728469       -0.9311683596       -1.3718015798
H                -3.8628118540        1.7459879708        1.9120216560
H                -2.1598343986        2.0773547173        1.4604348232
H                -5.5708714722        3.2408796937        1.2033423174
H                -6.2928208895        5.2194792551       -0.0691686427
H                -4.7549630400        6.2826006807       -1.6783585689
H                -2.4867567573        5.3560211702       -2.0039357755
H                -1.7617277305        3.3953111588       -0.7271676894



