%chk=calculation/no_transfer_pubchem_sampling_3_b3lyp/58395504_rwf.chk
%rwf=calculation/no_transfer_pubchem_sampling_3_b3lyp/58395504_rwf.rwf
%nprocshared=14
%mem=3GB
#p b3lyp/6-31g(d) 6D 10F nosymm GFInput td=(50-50,nstate=2) SCF=XQC 

Gaussian input prepared by ASE

0 1
F                 6.9444684203        0.3373802196       -1.8050416092
C                 5.6861742706        0.7296479054       -1.5094120345
C                 5.0597615637        1.6593690424       -2.3286690196
C                 3.7563112930        2.0458495820       -2.0070411162
C                 3.1109417809        1.5131316573       -0.8916448453
C                 3.7587781047        0.5750307084       -0.0754363453
C                 3.0768757966        0.0300452636        1.1679094440
N                 1.6940880369       -0.3743971321        0.9338278531
C                 1.6047075704       -1.5401306549        0.0425893463
C                 0.1703454027       -2.1164868294        0.0012951801
C                -0.8355491134       -1.0276631077        0.3889327047
N                -2.2270276653       -1.4344424642        0.1768977664
C                -2.7766218868       -2.7036755647        0.2735761895
N                -4.0705107311       -2.7425690958        0.0920184254
C                -4.4282466408       -1.4197040651       -0.1298302748
C                -5.6994291072       -0.8655882476       -0.3869386779
N                -5.8780794050        0.4378923538       -0.5791141384
C                -4.7705562597        1.1950205523       -0.5123601220
N                -4.7623995834        2.5633735628       -0.6781568415
C                -3.4762624895        3.0362896531       -0.5432005000
C                -2.6240131426        1.9872867673       -0.2892871506
C                -3.4258393255        0.7990722808       -0.2658363777
C                -3.2884232748       -0.5885071931       -0.0739440681
C                -0.5808640764       -0.5931024258        1.8507757479
C                 0.9326598216       -0.5899452408        2.1653204584
C                 5.0608291000        0.1795614762       -0.3955341094
H                 5.5840031466        2.0589671409       -3.1903988782
H                 3.2444203355        2.7707061014       -2.6341375309
H                 2.0951316081        1.8086916191       -0.6481771646
H                 3.6851734594       -0.7987013324        1.5815920673
H                 3.0609483683        0.8161356632        1.9346804179
H                 1.9146863720       -1.2220063061       -0.9579944626
H                 2.3059810989       -2.3369148535        0.3578672418
H                -0.0480167088       -2.5113449295       -0.9962720850
H                 0.0861031789       -2.9550932944        0.7034002097
H                -0.6706331360       -0.1707771073       -0.2696744928
H                -2.1568735194       -3.5679579522        0.4705323315
H                -6.5771669744       -1.5063335344       -0.4333634146
H                -5.5905229638        3.1084097340       -0.8640009590
H                -3.2635079007        4.0915301833       -0.6390807026
H                -1.5567551826        2.0704978614       -0.1388775274
H                -1.0131848866        0.4001210344        2.0116662512
H                -1.1015117659       -1.2837127887        2.5244381926
H                 1.2265039312       -1.5331599936        2.6663052508
H                 1.1680321433        0.2175970181        2.8659626199
H                 5.5950699358       -0.5493912670        0.2067507499



