%chk=./calculation/no_transfer_pubchem_sampling_3_b3lyp/58395504.chk
%nprocshared=7
%mem=6GB
#p b3lyp/6-31g(d) opt SCF=XQC 

Gaussian input prepared by ASE

0 1
F                 6.6376023428        0.4014919986       -2.0237430590
C                 5.4011025981        0.7662875558       -1.6213374829
C                 4.6822593507        1.6621696165       -2.3889194516
C                 3.4151627021        2.0229098184       -1.9608224377
C                 2.8952738884        1.4972228865       -0.7927382605
C                 3.6284946591        0.5936346538       -0.0310962809
C                 3.0391001726        0.0396995281        1.2385160503
N                 1.6789600680       -0.4095288693        1.0159777447
C                 1.6375643257       -1.5670612365        0.1356310139
C                 0.2257426360       -2.1633952239        0.0827362908
C                -0.7704177317       -1.0594598747        0.4235366172
N                -2.1391039301       -1.4361932358        0.1753791538
C                -2.7181851693       -2.6726009568        0.2502022424
N                -3.9928711280       -2.6761772675        0.0220712048
C                -4.3236863460       -1.3647994374       -0.2142583747
C                -5.5589935515       -0.7794840415       -0.5149199923
N                -5.6843438529        0.5146059209       -0.7090736166
C                -4.5770159722        1.2505331669       -0.6040389890
N                -4.5252660467        2.6006297418       -0.7656771964
C                -3.2413032813        3.0243163253       -0.5810550275
C                -2.4347393199        1.9609226836       -0.2984881321
C                -3.2611266780        0.8070788188       -0.3075781710
C                -3.1575625294       -0.5710266244       -0.1122973170
C                -0.5734279005       -0.6621426507        1.8950776562
C                 0.9257658377       -0.6504726241        2.2310206867
C                 4.8958829970        0.2232543739       -0.4539877644
H                 5.1103762234        2.0602545888       -3.2948563512
H                 2.8346058037        2.7210319218       -2.5445982456
H                 1.9079175058        1.7743763690       -0.4584917700
H                 3.6853982522       -0.7664708246        1.6308244255
H                 3.0089323437        0.8397518729        1.9856854477
H                 1.9444057408       -1.2295367098       -0.8583577307
H                 2.3532384857       -2.3430194524        0.4624935170
H                 0.0270453026       -2.5697899947       -0.9095290421
H                 0.1313375497       -2.9736380723        0.8075957433
H                -0.5538869708       -0.1965980260       -0.2145765495
H                -2.1542541939       -3.5576433076        0.4693438829
H                -6.4561926969       -1.3739309170       -0.5980493420
H                -5.3190144530        3.1781661170       -0.9827961169
H                -2.9885453136        4.0637922465       -0.6640761722
H                -1.3810961827        2.0042005664       -0.1040090562
H                -1.0132547657        0.3212438686        2.0634179219
H                -1.0945454618       -1.3771586077        2.5348155416
H                 1.2206538842       -1.6018024082        2.7067559353
H                 1.1381633004        0.1506729792        2.9414314149
H                 5.4938465052       -0.4763152560        0.1097734394



