%chk=calculation/no_transfer_pubchem_sampling_3_b3lyp/58724634_rwf.chk
%rwf=calculation/no_transfer_pubchem_sampling_3_b3lyp/58724634_rwf.rwf
%nprocshared=14
%mem=3GB
#p b3lyp/6-31g(d) 6D 10F nosymm GFInput td=(50-50,nstate=2) SCF=XQC 

Gaussian input prepared by ASE

0 1
C                 2.7042489962        0.5161072440       -3.7273174348
C                 3.6219531315       -0.3281704806       -2.8225761610
C                 4.9778921140        0.3700431593       -2.6046462014
C                 2.9479440884       -0.6799351137       -1.5036310172
C                 2.5579715434        0.3120224604       -0.5898722076
C                 1.9472335350       -0.0141694562        0.6171522948
C                 1.6958999810       -1.3560575443        0.9571996850
C                 1.0216910054       -1.6676422224        2.2286758162
C                -0.0803384771       -1.0509907143        2.8241412411
C                -0.8488996617        0.1566079676        2.3813249767
O                -0.7604536968        1.2043280925        3.0260489677
N                -1.6382888502        0.0620669806        1.2646884593
C                -1.9409917146       -1.1935359556        0.5669030491
C                -2.1452484646       -0.9425326135       -0.9303613912
C                -3.2722112583        0.0872446802       -1.2003225360
C                -3.6495770427        0.8833624236        0.0697599338
C                -4.5155251942        2.1408133637       -0.2406930043
C                -3.7490287548        3.4721065209       -0.0980705563
C                -2.3205796639        3.3562412451       -0.6454627301
C                -1.4994317775        2.2903524235        0.1241325167
C                -2.3963238297        1.2733328592        0.8745891924
C                -0.2494216371       -1.7296462304        4.0494748058
N                 0.6471452056       -2.6979900083        4.2121303949
N                 1.4182459292       -2.6484789530        3.1017348220
C                 2.5532305491       -3.5510196190        3.0115894785
C                 2.0757513118       -2.3508639050        0.0424100203
C                 2.6939412947       -2.0134021595       -1.1614217620
H                 1.7536930484        0.0051314313       -3.9156908003
H                 3.1861693418        0.7080898113       -4.6932305938
H                 2.4774764513        1.4865862153       -3.2702448439
H                 3.8194050056       -1.2739409364       -3.3455515277
H                 5.4716913830        0.5605083472       -3.5648368159
H                 4.8528143804        1.3342601869       -2.0979667026
H                 5.6468710132       -0.2444006227       -1.9924195625
H                 2.7415879210        1.3591121992       -0.8173514840
H                 1.6694956091        0.7700596292        1.3151407359
H                -2.8408640269       -1.6609445210        0.9960206922
H                -1.1179209769       -1.8893248484        0.7222499514
H                -2.3644438528       -1.8992301013       -1.4188461382
H                -1.1955586067       -0.5882063082       -1.3473707401
H                -2.9590885868        0.7766027257       -1.9932752071
H                -4.1730727769       -0.4145094418       -1.5753023577
H                -4.2427270448        0.2149293730        0.7067696927
H                -4.9022770543        2.0561866562       -1.2650921845
H                -5.3948545063        2.1601548790        0.4142084332
H                -4.2963734447        4.2684870218       -0.6171396591
H                -3.7078279079        3.7684223754        0.9586194719
H                -1.8152238489        4.3281948334       -0.5980275515
H                -2.3746170985        3.0936260293       -1.7109101798
H                -0.8377783256        1.7525109638       -0.5644799409
H                -0.8530617873        2.7629572552        0.8698172228
H                -2.7156785972        1.7414281487        1.8107940471
H                -0.9930340336       -1.5445844673        4.8133448098
H                 2.2766011326       -4.4965278764        2.5310650250
H                 2.8917238125       -3.7566717186        4.0278273770
H                 3.3556707506       -3.0800405642        2.4409104280
H                 1.8682814183       -3.3948021894        0.2604162708
H                 2.9760905462       -2.8042609312       -1.8531165209



