%chk=./calculation/no_transfer_pubchem_sampling_3_b3lyp/58724634.chk
%nprocshared=7
%mem=6GB
#p b3lyp/6-31g(d) opt SCF=XQC 

Gaussian input prepared by ASE

0 1
C                 1.9130747961        0.6457524070       -3.5223344861
C                 3.0013413388       -0.1538743511       -2.8010608492
C                 4.3014909782        0.6479788140       -2.7188750254
C                 2.5262604125       -0.5630034123       -1.4294861984
C                 2.2185704563        0.3877781224       -0.4616069404
C                 1.7417839821        0.0120851585        0.7774761994
C                 1.5619802392       -1.3349620980        1.0887907476
C                 0.9635589165       -1.6888249765        2.3686572488
C                -0.1346493557       -1.0935587233        2.9868375609
C                -0.8882442298        0.0962598001        2.5249051145
O                -0.8786383502        1.1361419568        3.1643111895
N                -1.5558429738       -0.0140162110        1.3511776700
C                -1.7663264943       -1.2420549907        0.6204327557
C                -1.6422305546       -0.9816407224       -0.8772859692
C                -2.6959825092        0.0322798655       -1.3488348942
C                -3.2907079732        0.8223172566       -0.1732963213
C                -4.0397137898        2.0861438051       -0.6418059329
C                -3.2609160954        3.3752868787       -0.3724961674
C                -1.7846365830        3.1849636038       -0.6959714951
C                -1.1551723742        2.1418611435        0.2351220203
C                -2.2039140432        1.1883362653        0.8345145744
C                -0.2880204263       -1.8067643939        4.1852248116
N                 0.6203726519       -2.7562320930        4.2886265037
N                 1.3708217640       -2.6836867109        3.1932652737
C                 2.4986548625       -3.5576683735        3.0446211413
C                 1.8864429692       -2.2916051452        0.1307386806
C                 2.3603368705       -1.9041843001       -1.1087945690
H                 0.9950570533        0.0645404437       -3.5863890557
H                 2.2351687895        0.8951127359       -4.5308483836
H                 1.6985589180        1.5708104660       -2.9925085595
H                 3.1971732038       -1.0633221998       -3.3803539217
H                 4.6644347645        0.8773573926       -3.7182912825
H                 4.1477181343        1.5837991281       -2.1877362439
H                 5.0659286111        0.0776899187       -2.1954751234
H                 2.3448614319        1.4383280019       -0.6775309887
H                 1.5024232335        0.7603286463        1.5177088618
H                -2.7627025747       -1.6470330656        0.8462439834
H                -1.0311127023       -1.9821908733        0.9333666494
H                -1.7513660162       -1.9255117933       -1.4131497713
H                -0.6356178306       -0.6084251526       -1.0735268802
H                -2.2443689578        0.7169830898       -2.0656826416
H                -3.5103391416       -0.4840127154       -1.8616616165
H                -4.0088083063        0.1718947069        0.3363950007
H                -4.2349169217        2.0009460620       -1.7129163944
H                -5.0077575003        2.1492341379       -0.1417953583
H                -3.6779421040        4.1814129133       -0.9793626283
H                -3.3623871911        3.6653347057        0.6741806424
H                -1.2571802317        4.1351055634       -0.5959582659
H                -1.6919638924        2.8714225808       -1.7381041465
H                -0.4071329650        1.5607706227       -0.3048725918
H                -0.6499046590        2.6334443703        1.0671076756
H                -2.6670342665        1.6862015719        1.6952264601
H                -1.0219283943       -1.6632723281        4.9518527972
H                 2.2144552437       -4.4830643740        2.5368731786
H                 2.8646451825       -3.8085223060        4.0390540194
H                 3.2818835886       -3.0594953727        2.4743821665
H                 1.7363529043       -3.3406223268        0.3400645415
H                 2.5941061112       -2.6603551260       -1.8452327662



