%chk=calculation/no_transfer_pubchem_sampling_3_b3lyp/61554216_rwf.chk
%rwf=calculation/no_transfer_pubchem_sampling_3_b3lyp/61554216_rwf.rwf
%nprocshared=14
%mem=3GB
#p b3lyp/6-31g(d) 6D 10F nosymm GFInput td=(50-50,nstate=2) SCF=XQC 

Gaussian input prepared by ASE

0 1
C                -5.7368397821        0.9994945119        0.8147989069
C                -4.2637173527        0.6897850580        0.6963335326
C                -3.3825297230        1.0489203132        1.7211759809
C                -2.0183081902        0.7748984684        1.6381572772
C                -1.5011935706        0.1176342894        0.5179817061
C                -0.0345610020       -0.1733269222        0.4007732317
S                 0.7873564010        0.9972255233       -0.8193757488
O                 0.3400287188        0.5669422375       -2.2004948451
C                 2.4789057253        0.3481168399       -0.5877515415
C                 3.0191047228       -0.4462890678       -1.5971649242
C                 4.3225375442       -0.9225968207       -1.4667492584
C                 5.0784502636       -0.5945991493       -0.3327291028
C                 6.4736886647       -1.0741854390       -0.1425832545
O                 7.1694403268       -0.8208514874        0.8204922484
O                 6.9148733590       -1.8445232396       -1.1691684572
C                 4.5263180144        0.2184392529        0.6682560659
C                 3.2272242746        0.6983222973        0.5401930287
C                -2.3813929451       -0.2405572270       -0.5134688644
C                -3.7489337184        0.0350744108       -0.4445511447
C                -4.6578396943       -0.3668734400       -1.5820953794
H                -6.0819487704        1.6477573808       -0.0011847629
H                -6.3484899530        0.0888195371        0.7715981687
H                -5.9593790430        1.5056293091        1.7590559728
H                -3.7731146706        1.5528542427        2.6023768768
H                -1.3579314635        1.0658538848        2.4521524724
H                 0.1692280870       -1.1716677701       -0.0002127170
H                 0.4907791965       -0.0533059191        1.3534629468
H                 2.4111433394       -0.6694999710       -2.4691412767
H                 4.7578103165       -1.5452713190       -2.2405461299
H                 7.8276429368       -2.0968227584       -0.9367708076
H                 5.1338857417        0.4663785297        1.5322761769
H                 2.8054398357        1.3426753511        1.3081456310
H                -1.9821044270       -0.7295039352       -1.3978980610
H                -5.1705600724        0.5011618769       -2.0163589721
H                -5.4407643082       -1.0617428351       -1.2508934846
H                -4.0942467822       -0.8543680140       -2.3827494910



