%chk=./calculation/no_transfer_pubchem_sampling_3_b3lyp/61554216.chk
%nprocshared=7
%mem=6GB
#p b3lyp/6-31g(d) opt SCF=XQC 

Gaussian input prepared by ASE

0 1
C                -5.6570528433        0.9742071007        0.6799712109
C                -4.1902879177        0.6760433259        0.6290264465
C                -3.3482651539        1.1241691383        1.6372919672
C                -1.9915226263        0.8641142725        1.6077002142
C                -1.4475449171        0.1281026388        0.5632844646
C                 0.0145300832       -0.1238560517        0.4841791519
S                 0.7685364666        1.2170895828       -0.6022494944
O                 0.3055186530        0.9378698523       -1.9582510393
C                 2.4370185122        0.4867589133       -0.4875507866
C                 2.9120292401       -0.2664069397       -1.5462907700
C                 4.1738033169       -0.8255490475       -1.4802691596
C                 4.9590168370       -0.6171138939       -0.3482172060
C                 6.3165985972       -1.1940650809       -0.2293180091
O                 7.0378503396       -1.0550153379        0.7271200597
O                 6.6901623730       -1.9063966410       -1.3036900138
C                 4.4763686297        0.1561257594        0.7082895458
C                 3.2148535940        0.7122856337        0.6376782499
C                -2.2872605646       -0.3169884266       -0.4500193934
C                -3.6475857181       -0.0530332166       -0.4338367928
C                -4.5216603038       -0.5447853338       -1.5459988105
H                -5.9607854369        1.5530503321       -0.1918232422
H                -6.2368297347        0.0515462055        0.6815978412
H                -5.9047264960        1.5403525634        1.5742704105
H                -3.7619573564        1.6911775912        2.4592485560
H                -1.3542499288        1.2275123645        2.4012546601
H                 0.2473175071       -1.0720609375        0.0039203490
H                 0.5068928909       -0.0448640077        1.4502466390
H                 2.2777541038       -0.3968658687       -2.4110773137
H                 4.5570204192       -1.4192425222       -2.2949630586
H                 7.5848804840       -2.2553389457       -1.1685455089
H                 5.1094663730        0.3073590703        1.5692411878
H                 2.8336177021        1.3190193898        1.4453853738
H                -1.8648214624       -0.8715116744       -1.2752187697
H                -5.0276581802        0.2888350251       -2.0315405178
H                -5.2873528773       -1.2196731898       -1.1637179854
H                -3.9336726047       -1.0728536438       -2.2917864562



