%chk=./calculation/no_transfer_pubchem_sampling_3_b3lyp/654425.chk
%nprocshared=7
%mem=6GB
#p b3lyp/6-31g(d) opt SCF=XQC 

Gaussian input prepared by ASE

0 1
C                 6.9741227678        1.1428917633        3.7214744818
C                 6.8592691171        0.1215434760        2.6532821909
C                 5.8258722725       -0.2204722015        1.8276009903
C                 6.3629161459       -1.2736817332        1.0352049477
N                 5.8340929569       -2.0429852814        0.0257063720
C                 4.6147407865       -2.0668260193       -0.5983515844
O                 4.4215295491       -2.8630405743       -1.4897136214
C                 3.5823185385       -1.0781472765       -0.1199046788
C                 2.2758925839       -1.2186960354       -0.8931781854
C                 1.2769842242       -0.1785216973       -0.4324394833
O                 1.5261286821        0.6610214998        0.4113200239
N                 0.0727403806       -0.2289782416       -1.0580795316
C                -0.2435201564       -1.1774864925       -2.0680990937
C                -0.7624300409       -2.4226108881       -1.7382895845
C                -1.0889185357       -3.3203958385       -2.7400589384
C                -0.9049200061       -2.9894501109       -4.0712765044
C                -0.3875852530       -1.7439423823       -4.3776392602
F                -0.2098557879       -1.4052323018       -5.6693805206
C                -0.0502774047       -0.8285976398       -3.3992953126
C                -0.9696526766        0.6835999081       -0.6091038274
C                -1.8286892959        0.0324807560        0.4946515018
O                -1.6955616787       -1.1164767279        0.8516403135
N                -2.7366664362        0.8829910335        1.0050306058
C                -3.7001070810        0.5104483549        2.0197007571
C                -3.5682337767        1.4058278899        3.2702400082
C                -4.9427966847        2.0491554807        3.4773485892
C                -5.5547492950        2.0709508395        2.0796498306
C                -5.1381981226        0.7172204119        1.5114176060
C                -1.8306541116        1.1356453140       -1.7585125466
C                -1.5731430210        2.3309390463       -2.4193400244
C                -2.3824694171        2.6860546998       -3.4880399511
N                -3.3918638368        1.9475630167       -3.9123029430
C                -3.6362589870        0.8101844329       -3.2857892022
C                -2.8924903842        0.3566432194       -2.2079956606
N                 7.6099482139       -1.5111864359        1.3857202011
O                 7.9205343603       -0.6516404743        2.3850034515
H                 6.0361246194        1.6800635134        3.8194792687
H                 7.2206145545        0.6662025621        4.6686747544
H                 7.7715655860        1.8447203149        3.4831647810
H                 4.8549505130        0.2212387896        1.8099248783
H                 6.4984648111       -2.7233017047       -0.3296559496
H                 3.9689046797       -0.0644497452       -0.2437986608
H                 3.3915174328       -1.2405293005        0.9424912195
H                 2.4603476560       -1.1057610399       -1.9634819885
H                 1.8570352042       -2.2151069483       -0.7427969276
H                -0.9232231576       -2.6626945001       -0.6988066836
H                -1.4923848494       -4.2871951627       -2.4819395622
H                -1.1545268778       -3.6748650282       -4.8651375453
H                 0.3498411219        0.1353751504       -3.6726864515
H                -0.4404689950        1.5362551570       -0.1611782398
H                -2.7877145833        1.8270223614        0.6546555721
H                -3.4954038394       -0.5387032869        2.2420922485
H                -2.8139677032        2.1715885204        3.0837039529
H                -3.2512672240        0.8349395702        4.1402737999
H                -5.5527361612        1.4248325855        4.1312373189
H                -4.8712096025        3.0405366315        3.9212048557
H                -6.6350250705        2.2024199591        2.0961825133
H                -5.1201081251        2.8804622910        1.4901272401
H                -5.7830782506       -0.0645663977        1.9122636286
H                -5.1865436519        0.6775223094        0.4235821332
H                -0.7568763983        2.9664296239       -2.1100327739
H                -2.2158770154        3.6068057633       -4.0312976403
H                -4.4695250546        0.2356105018       -3.6677070246
H                -3.1274792085       -0.5816482807       -1.7294121342



