%chk=calculation/no_transfer_pubchem_sampling_3_b3lyp/654425_rwf.chk
%rwf=calculation/no_transfer_pubchem_sampling_3_b3lyp/654425_rwf.rwf
%nprocshared=14
%mem=3GB
#p b3lyp/6-31g(d) 6D 10F nosymm GFInput td=(50-50,nstate=2) SCF=XQC 

Gaussian input prepared by ASE

0 1
C                 5.4012264477        2.2531000063        4.1276858552
C                 5.4652224242        1.0250411287        3.2869468883
C                 4.6502031007        0.5155395653        2.3196521350
C                 5.3090093000       -0.6919017571        1.9285189857
N                 4.9855664986       -1.6598997879        0.9832915410
C                 3.9157155735       -1.8168279644        0.1153654753
O                 3.8874861709       -2.7900431572       -0.6228609596
C                 2.8259517002       -0.7603581921        0.1299060645
C                 1.7187556363       -1.0772995701       -0.8719273931
C                 0.6348727789       -0.0064332057       -0.8398235924
O                 0.7262038117        0.9761076106       -0.0957759740
N                -0.4513744837       -0.1778592914       -1.6694977788
C                -0.6348636470       -1.3536746160       -2.4795674412
C                -1.4648388275       -2.3913146356       -2.0413212562
C                -1.6329306980       -3.5228283739       -2.8417612781
C                -0.9806259352       -3.6333955490       -4.0698122760
C                -0.1678561776       -2.5841549338       -4.4835704717
F                 0.4611308076       -2.6710460541       -5.6717214012
C                 0.0140312809       -1.4409798234       -3.7153257504
C                -1.5093470940        0.8758584049       -1.6191699550
C                -2.4881604188        0.5502682582       -0.4621906468
O                -3.4657709047       -0.1850964776       -0.5870001051
N                -2.1280529192        1.1378639415        0.7104430266
C                -2.8083166476        0.8654178265        1.9676952240
C                -2.1320997814       -0.1949307815        2.8591032877
C                -2.8157717816        0.0044362664        4.2232246308
C                -3.1374558170        1.5285962670        4.3077762707
C                -2.8900527843        2.0999548693        2.8872290025
C                -2.1405214287        1.1251710795       -2.9780288801
C                -1.5274264705        2.0519956503       -3.8308750976
C                -2.0742630636        2.2896034863       -5.0906617074
N                -3.1754381420        1.6809984821       -5.5483598617
C                -3.7586830057        0.8006642755       -4.7260537632
C                -3.2910957667        0.4843124832       -3.4487140310
N                 6.4254039384       -0.8853532277        2.6087096180
O                 6.5218361151        0.2112035072        3.4732411019
H                 4.5056934015        2.8304567064        3.8859180107
H                 5.3751360201        1.9961452301        5.1926719400
H                 6.2804408644        2.8857145956        3.9615386718
H                 3.7331074532        0.9465973341        1.9555789781
H                 5.6632257855       -2.4127914406        0.9123382587
H                 3.2620023780        0.2197499816       -0.0922153240
H                 2.4090253906       -0.6775090285        1.1397519837
H                 2.1339477865       -1.1684592312       -1.8804376842
H                 1.2779642104       -2.0576953500       -0.6620752104
H                -1.9915928956       -2.2953489424       -1.0990117264
H                -2.2783662846       -4.3280530829       -2.5039224775
H                -1.0943710841       -4.5057691773       -4.7044353606
H                 0.6397222652       -0.6347126308       -4.0810115278
H                -0.9647357141        1.7807119993       -1.3438982093
H                -1.1880987531        1.5230009240        0.7502569260
H                -3.8119344400        0.5220233721        1.7008470804
H                -1.0570725744        0.0247187604        2.9254269423
H                -2.2398826029       -1.2086702786        2.4597725588
H                -3.7444191751       -0.5772751264        4.2581234682
H                -2.1954567097       -0.3408008654        5.0564167801
H                -4.1731975334        1.6883998419        4.6245780146
H                -2.5050096050        2.0323565078        5.0459180018
H                -3.6598162207        2.8073231008        2.5634046818
H                -1.9304030567        2.6335324249        2.8521455512
H                -0.6335915541        2.5864118533       -3.5178986425
H                -1.6080078921        3.0081518162       -5.7631812570
H                -4.6558884087        0.3156737498       -5.1074994161
H                -3.8160918413       -0.2266217539       -2.8245424990



