%chk=calculation/no_transfer_pubchem_sampling_3_b3lyp/67989442_rwf.chk
%rwf=calculation/no_transfer_pubchem_sampling_3_b3lyp/67989442_rwf.rwf
%nprocshared=14
%mem=3GB
#p b3lyp/6-31g(d) 6D 10F nosymm GFInput td=(50-50,nstate=2) SCF=XQC 

Gaussian input prepared by ASE

0 1
C                10.0159752628        1.5709537364       -2.1458061721
S                 8.7975293415        0.4851302867       -2.9326376549
O                 9.3569752533       -0.8764807188       -2.9276091125
O                 8.3818211755        1.1317882330       -4.1877075101
C                 7.4011597086        0.5165756240       -1.7996398353
C                 7.3147417943       -0.4461070502       -0.7931965906
C                 6.2275914815       -0.4154553333        0.0792380117
C                 5.2347337304        0.5650131041       -0.0402050293
C                 4.0802622753        0.6179180637        0.9500903637
N                 2.8373593612        1.0769941388        0.3509941731
C                 1.8685909781        1.6488582080        1.2910711937
C                 1.0764414022        0.6159519206        2.1135157181
C                 0.5932298111       -0.5631541264        1.2032275727
C                -0.8002273231       -1.0227825250        1.5483945363
C                -2.0542757205       -0.4085539960        1.4113641596
C                -2.3144671471        0.9378675963        0.8540838651
O                -1.4628173806        1.8344645831        0.8643924226
N                -3.5555962631        1.1975463158        0.3265858836
C                -4.5867235732        0.2367828011       -0.0996878559
C                -5.2639679285        0.9348507300       -1.2942848722
C                -6.6260961619        0.3323677379       -1.7404202179
C                -6.9668548919        0.8005116649       -3.1440207568
C                -7.9399950797        1.6909378775       -3.3825183733
C                -8.7333257273        2.2205704622       -2.2802379903
F                -9.5327141859        3.2660097358       -2.5959209215
C                -8.6818661014        1.7260489521       -1.0422214533
C                -7.8278533923        0.5104440694       -0.7680913092
C                -5.1751086688        2.4029132238       -0.8667799784
F                -5.3393878688        3.2812784495       -1.8943139579
F                -6.1402778672        2.6970368327        0.0721927232
C                -3.8006659105        2.5383097042       -0.2141596181
C                -2.9644326520       -1.3118183570        2.0197581860
N                -2.3667963813       -2.3954645000        2.4846348609
N                -1.0484375738       -2.2172042991        2.1719535337
C                -0.1384175906       -3.2578392551        2.5340449905
C                 0.6448681979       -3.8914552617        1.5648544294
C                 1.5138325020       -4.9180762078        1.9323160016
C                 1.5626951827       -5.3074283099        3.2660528350
F                 2.3958246816       -6.3030595797        3.6244704865
C                 0.7731385461       -4.7055010597        4.2408042122
C                -0.0808280700       -3.6704399841        3.8685234615
C                 0.7668909242       -0.2086131586       -0.2901923046
C                 2.2411830675        0.1056183631       -0.5925369266
C                 5.3375262437        1.5138614582       -1.0665774064
C                 6.4141889674        1.4938160092       -1.9501382325
H                10.2839321330        1.1635980048       -1.1690360930
H                10.8876399106        1.5827874083       -2.8050761249
H                 9.5969905245        2.5747242290       -2.0524111149
H                 8.0732313351       -1.2186972555       -0.7182281597
H                 6.1447829484       -1.1707445668        0.8576005581
H                 4.3451776249        1.3267688085        1.7468133296
H                 3.9942471782       -0.3737081288        1.4380274477
H                 2.4031169690        2.3351158151        1.9573563822
H                 1.1564888301        2.2569058933        0.7248260610
H                 1.6913830199        0.2088150679        2.9257496897
H                 0.2223239788        1.1230516072        2.5675035461
H                 1.2610151606       -1.4098298042        1.3930690794
H                -5.3133947709        0.0531819413        0.7024686032
H                -4.1392710849       -0.7200840031       -0.3788972297
H                -4.5790256403        0.8509690409       -2.1492858388
H                -6.4283183352       -0.7473930725       -1.7985910689
H                -6.3524116340        0.4263920489       -3.9603668581
H                -8.1556132081        2.0559078854       -4.3825388949
H                -9.2845506805        2.1545626605       -0.2484192251
H                -7.4802991637        0.5296700794        0.2690863588
H                -8.4635009135       -0.3847588851       -0.8542196234
H                -3.0428975226        2.8122878390       -0.9559396582
H                -3.8052641619        3.3012245720        0.5690816623
H                -4.0303908426       -1.1996303022        2.1627515073
H                 0.5621744144       -3.5950996484        0.5241225498
H                 2.1330786129       -5.4256372837        1.2006005152
H                 0.8367106253       -5.0460721900        5.2687060191
H                -0.7137218459       -3.1830867149        4.6017999865
H                 0.4531625128       -1.0505582441       -0.9202701619
H                 0.1270774852        0.6393726545       -0.5460098281
H                 2.3351679782        0.4693959975       -1.6255520182
H                 2.8117213600       -0.8345091952       -0.5451966352
H                 4.5498691059        2.2537950829       -1.1698065022
H                 6.4839386676        2.2102944979       -2.7625998020



