%chk=calculation/no_transfer_pubchem_sampling_3_b3lyp/68152220_rwf.chk
%rwf=calculation/no_transfer_pubchem_sampling_3_b3lyp/68152220_rwf.rwf
%nprocshared=14
%mem=3GB
#p b3lyp/6-31g(d) 6D 10F nosymm GFInput td=(50-50,nstate=2) SCF=XQC 

Gaussian input prepared by ASE

0 1
C                -3.8698111656       -3.6541159501        0.8791784198
N                -3.0087293095       -2.5016326568        0.7116469158
C                -3.3627669922       -1.2108374025        0.5144960349
C                -2.1988906983       -0.4841615965        0.3038846587
C                -2.0892531631        0.9608682773        0.0503676216
C                -1.1534048578        1.4786429431       -0.8635960006
C                -1.0745532425        2.8494325472       -1.1081170080
C                -1.9338398785        3.7347162089       -0.4553630473
C                -2.8721877906        3.2351731232        0.4506366109
C                -2.9435714649        1.8672212176        0.7053689881
C                -1.1745011516       -1.4780717772        0.4065228056
N                 0.1974536489       -1.2196840295        0.3301345759
C                 1.2032189186       -2.1309776430        0.0590101447
O                 1.0284858323       -3.3137083579       -0.1932436260
C                 2.5644098373       -1.5433371943        0.0919190276
C                 3.7620202305       -2.2506466251       -0.1320010302
N                 4.8639580075       -1.4967361990       -0.0467146546
N                 4.3849935876       -0.2613050642        0.2393378840
C                 5.1224811652        0.8624286333        0.4226966989
C                 4.4560821945        2.0277432153        0.7035014854
C                 3.0369104722        1.9997276353        0.7872720622
N                 2.3174707638        0.9080529570        0.6103729856
C                 2.9840276327       -0.2323156887        0.3355201090
N                -1.6676737893       -2.6889364401        0.6567134437
H                -3.5284004714       -4.2418014477        1.7350686004
H                -3.8475633210       -4.2855663398       -0.0150873869
H                -4.8911255197       -3.3096980122        1.0565600663
H                -4.3976758880       -0.8986347183        0.5027347226
H                -0.5005515371        0.7990285936       -1.4028242076
H                -0.3468424694        3.2239963010       -1.8236841616
H                -1.8744506251        4.8021268683       -0.6505767747
H                -3.5443792456        3.9142105689        0.9691716454
H                -3.6573911954        1.4898743526        1.4329632443
H                 0.4802119739       -0.2564120794        0.4939960731
H                 3.8481961929       -3.3053011120       -0.3552765030
H                 6.1962244432        0.7494723264        0.3311232599
H                 5.0044991542        2.9490867426        0.8572845752
H                 2.4869167213        2.9120738230        1.0064237411



