%chk=./calculation/no_transfer_pubchem_sampling_3_b3lyp/68152220.chk
%nprocshared=7
%mem=6GB
#p b3lyp/6-31g(d) opt SCF=XQC 

Gaussian input prepared by ASE

0 1
C                -3.9235394039       -3.6227546949        0.6879824168
N                -3.0323236339       -2.5100711848        0.5419847429
C                -3.3411400912       -1.2061889529        0.4264192575
C                -2.1557118804       -0.5093828197        0.2764494424
C                -1.9620811137        0.9243857182        0.1125061305
C                -1.0032270218        1.4250344627       -0.7674663191
C                -0.8183293522        2.7883664529       -0.9017547985
C                -1.5874091816        3.6746174418       -0.1668753427
C                -2.5546945733        3.1877771537        0.6973436755
C                -2.7415474731        1.8260538094        0.8362330509
C                -1.1638766233       -1.5282043129        0.3362847591
N                 0.1950436242       -1.2977375698        0.2935187789
C                 1.1934564320       -2.2319709473        0.2494582463
O                 1.0355780269       -3.4300305141        0.1999449410
C                 2.5255278526       -1.5927100656        0.2504414476
C                 3.7724726426       -2.2318884143        0.2079517196
N                 4.7851380854       -1.3767112351        0.2187760386
N                 4.2408582493       -0.1723794108        0.2673451733
C                 4.8711627764        1.0148424582        0.2943932026
C                 4.1112244171        2.1497346361        0.3442700576
C                 2.7059547835        2.0220669556        0.3656304496
N                 2.0952338008        0.8685092531        0.3388733936
C                 2.8414776925       -0.2325426693        0.2895732794
N                -1.7155825762       -2.7158651715        0.5001114943
H                -3.7062043422       -4.1524427330        1.6169442235
H                -3.7863814882       -4.3183455944       -0.1414698518
H                -4.9508133350       -3.2643726359        0.7009415805
H                -4.3555108588       -0.8605830801        0.4260733930
H                -0.4217405767        0.7454218754       -1.3728418430
H                -0.0743656015        3.1605427172       -1.5919837158
H                -1.4405276880        4.7397233646       -0.2720543951
H                -3.1638286269        3.8746067770        1.2673608282
H                -3.4888822882        1.4487934700        1.5192180823
H                 0.4687006086       -0.3201236556        0.3273299173
H                 3.9547247899       -3.2871308790        0.1704100736
H                 5.9503973554        0.9982840676        0.2749693234
H                 4.5748291072        3.1208836424        0.3670035216
H                 2.0659344857        2.8917882851        0.4061256247



