%chk=calculation/no_transfer_pubchem_sampling_3_b3lyp/68271965_rwf.chk
%rwf=calculation/no_transfer_pubchem_sampling_3_b3lyp/68271965_rwf.rwf
%nprocshared=14
%mem=3GB
#p b3lyp/6-31g(d) 6D 10F nosymm GFInput td=(50-50,nstate=2) SCF=XQC 

Gaussian input prepared by ASE

0 1
O                -1.9056620906       -1.6833856541       -0.8401115935
C                -2.3995692919       -1.2016501373        0.1657736631
N                -2.0311410450       -1.6213828659        1.4399710621
S                -1.0587490518       -3.0063472339        1.7719698420
O                -1.0729107724       -3.0348496899        3.2352281343
O                -1.5147804595       -4.1349499960        0.9734091401
C                 0.5728684986       -2.5198787092        1.2098382576
C                 1.4600840371       -1.9750382257        2.1404272131
C                 2.7392624926       -1.6160356596        1.7193044775
C                 3.0946667819       -1.8112709284        0.3837180720
S                 4.7592251433       -1.3475068691       -0.1596864841
O                 5.6093704777       -1.3291398820        1.0408301845
O                 5.0753142767       -2.1821862528       -1.3286497596
C                 4.5881431927        0.3514345081       -0.7323498597
C                 4.7929300584        1.3976992846        0.1694302003
C                 4.6626985452        2.7112678751       -0.2811174253
C                 4.3343248996        2.9650947102       -1.6151135144
C                 4.1432315725        1.9084051431       -2.5087859698
C                 4.2710163060        0.5902837022       -2.0710947839
C                 2.2116663115       -2.3784950448       -0.5367928840
C                 0.9311975718       -2.7405307409       -0.1216938488
C                -3.4243833152       -0.1058049558        0.1117135805
C                -3.7029961435        0.7535499266        1.1833944219
C                -4.6624985101        1.7543303668        1.0506867372
C                -5.3535525823        1.8990846726       -0.1541237220
C                -6.3550853444        3.0142223825       -0.3161317069
F                -5.7705279732        4.1330648674       -0.8012633444
F                -6.9297980649        3.3455755547        0.8599456865
F                -7.3410299149        2.6785307107       -1.1745216281
C                -5.0766873407        1.0505142221       -1.2302849821
C                -4.1114794858        0.0583542121       -1.0987390863
H                -2.5669701049       -1.3458283668        2.2561444065
H                 1.1573421237       -1.8561513125        3.1749622046
H                 3.4640066457       -1.2149347672        2.4194461349
H                 5.0715630385        1.1806402879        1.1952013927
H                 4.8254747009        3.5356105010        0.4072033484
H                 4.2354239346        3.9900804376       -1.9615230824
H                 3.9021940001        2.1096975055       -3.5485371947
H                 4.1508967215       -0.2425076990       -2.7558788562
H                 2.5326645483       -2.5557221720       -1.5574941337
H                 0.2198697182       -3.1788588095       -0.8106896853
H                -3.1559776795        0.6765194944        2.1186818824
H                -4.8753645438        2.4193020551        1.8806809275
H                -5.6194511619        1.1646051576       -2.1626198306
H                -3.8768177210       -0.6054096051       -1.9236445941



