%chk=./calculation/no_transfer_pubchem_sampling_3_b3lyp/68271965.chk
%nprocshared=7
%mem=6GB
#p b3lyp/6-31g(d) opt SCF=XQC 

Gaussian input prepared by ASE

0 1
O                -1.0705065356       -1.2188897258       -0.5441783804
C                -1.9253155218       -1.0515528221        0.2978068311
N                -1.9936207119       -1.8442517143        1.3991957683
S                -1.0722710155       -3.2978605120        1.5114477936
O                -1.1849852909       -3.6364935344        2.8950655023
O                -1.5584859523       -4.2155884920        0.5358687381
C                 0.5718402617       -2.7416592674        1.1184751843
C                 1.1991981811       -1.8778478731        1.9949278951
C                 2.4651464027       -1.4129734290        1.6766827993
C                 3.0615463552       -1.8368838134        0.5031041678
S                 4.6714885971       -1.1521864971        0.0529349746
O                 5.4136449449       -0.9020016469        1.2584038979
O                 5.2525162760       -1.9948754031       -0.9552067945
C                 4.1970649516        0.4167762889       -0.6786192436
C                 4.3629554584        1.5820195517        0.0431517376
C                 3.9578192409        2.7838835942       -0.5141521858
C                 3.3887155915        2.8006728675       -1.7779267048
C                 3.2276387190        1.6231113416       -2.4923433225
C                 3.6332963009        0.4200163892       -1.9397214903
C                 2.4353982845       -2.7185558749       -0.3585600860
C                 1.1668442030       -3.1802390815       -0.0473914637
C                -2.9463057634        0.0351710381        0.1977504992
C                -3.5192166863        0.6403844004        1.3125499261
C                -4.4519994809        1.6483925706        1.1512402625
C                -4.8207502310        2.0456460714       -0.1277182523
C                -5.8169380477        3.1602005431       -0.2995840886
F                -5.2138719605        4.3644769936       -0.3400754788
F                -6.7051038762        3.2202617000        0.7027950982
F                -6.5222080215        3.0554164648       -1.4337529407
C                -4.2449798644        1.4581183224       -1.2469455289
C                -3.3055521435        0.4590398766       -1.0789919100
H                -2.7471353859       -1.7569292171        2.0618307634
H                 0.6981530150       -1.5901397540        2.9054907943
H                 3.0049100936       -0.7427734595        2.3269675975
H                 4.8204462772        1.5293721251        1.0185891168
H                 4.0876084344        3.7044726403        0.0342530338
H                 3.0733287829        3.7379058986       -2.2114783229
H                 2.7888970651        1.6434966726       -3.4780843125
H                 3.5346203207       -0.5097347148       -2.4766679267
H                 2.9556151256       -3.0364686508       -1.2484033788
H                 0.6234197475       -3.8557318392       -0.6876583697
H                -3.2239088784        0.3507582248        2.3096532127
H                -4.8979632776        2.1232905868        2.0116606112
H                -4.5339305232        1.7807624448       -2.2352363212
H                -2.8370604621       -0.0100072845       -1.9300367031



