%chk=calculation/no_transfer_pubchem_sampling_3_b3lyp/68498281_rwf.chk
%rwf=calculation/no_transfer_pubchem_sampling_3_b3lyp/68498281_rwf.rwf
%nprocshared=14
%mem=3GB
#p b3lyp/6-31g(d) 6D 10F nosymm GFInput td=(50-50,nstate=2) SCF=XQC 

Gaussian input prepared by ASE

0 1
C                 6.5063290079        1.4915159579       -3.4202315345
C                 5.4552323592        0.9136558832       -2.5033689074
C                 4.1165107117        0.9339100132       -2.8669287498
C                 3.1652776358        0.3883232932       -1.9931031620
O                 1.8654327875        0.4565021923       -2.4063735156
C                 0.8540321711       -0.1464315159       -1.6537115659
C                 0.8044264730       -1.5514136409       -1.5325667970
C                -0.2506302652       -2.1655732643       -0.8765493291
C                -1.2582146823       -1.3471218189       -0.3437068354
C                -1.2230974113        0.0674938821       -0.4827035656
C                -0.1367254505        0.6709063992       -1.1445646801
C                -2.4069472689        0.5619800341        0.1382320244
C                -3.1070628035       -0.5236468362        0.6324448594
C                -4.3259287331       -0.5409083644        1.4860947897
O                -4.4513186344       -1.3562776471        2.4066704780
N                -5.2895385304        0.4107641379        1.2621404699
C                -6.4160687483        0.4317769017        2.2069692408
C                -7.1896890023        1.7435056931        2.0614756362
N                -7.6799738995        1.9970732038        0.6970019481
C                -9.1320507545        2.0038554620        0.5058127135
C                -9.8534317459        0.6687888702        0.6415602620
C               -10.3641384271        0.2158251570        1.8642884856
C               -10.9800308067       -1.0321060601        1.9332641890
C               -11.0738880275       -1.7926188199        0.7667899669
N               -10.6152184928       -1.3787029992       -0.4204682802
C               -10.0278288105       -0.1777793272       -0.4635459181
C                -6.9313017647        1.2878153172       -0.3370190219
C                -5.4519315271        1.2089504898        0.0398161527
N                -2.3968326064       -1.6896714227        0.3529676449
C                -2.7962889872       -3.0644197672        0.6187248357
N                 3.4707512321       -0.1541684312       -0.8276688169
C                 4.7611061700       -0.1835312679       -0.4619448823
C                 5.7922979410        0.3336888525       -1.2549279157
N                 7.1553843104        0.2955264687       -0.8819599133
C                 7.7103342652       -0.1410578221        0.2999944010
O                 7.0608711566       -0.5640149026        1.2491588098
C                 9.2132479060       -0.0493848084        0.3660173841
C                10.0488472837       -0.0928051335       -0.7588546104
C                11.4326005742       -0.0160076755       -0.6157290377
C                11.9937407785        0.1062349147        0.6569528760
C                13.4908346242        0.1385037262        0.8182280592
F                13.8627773641        0.8636050180        1.8953484509
F                14.1006810917        0.6722549423       -0.2634321659
F                13.9995888300       -1.1038957065        0.9843713701
C                11.1695447248        0.1355977948        1.7862913797
C                 9.7894083657        0.0496141042        1.6396259836
H                 6.0508073217        1.8850279009       -4.3323859793
H                 7.0535102661        2.3183012661       -2.9466280605
H                 7.2441398168        0.7359456348       -3.7237224220
H                 3.7963052807        1.3630415254       -3.8106784138
H                 1.6070543557       -2.1444589019       -1.9565487213
H                -0.2868081769       -3.2464184520       -0.7836108297
H                -0.0678210940        1.7468800768       -1.2696581230
H                -2.6886064946        1.5988076472        0.2551572969
H                -7.0744096611       -0.4303127444        2.0344861407
H                -6.0185187599        0.3287370760        3.2200190586
H                -8.0316374885        1.7271683064        2.7601578939
H                -6.5386671041        2.5729443215        2.3761084111
H                -9.3212432172        2.4106503767       -0.4964599082
H                -9.5567368159        2.7199049171        1.2196728287
H               -10.2946846954        0.8408800621        2.7521740170
H               -11.3877637454       -1.4064195693        2.8677996738
H               -11.5470850973       -2.7730804869        0.7827884576
H                -9.6835680616        0.1436285880       -1.4469658461
H                -7.2981764756        0.2609227214       -0.5150381953
H                -7.0304886090        1.8329900347       -1.2859677048
H                -5.0615361232        2.2268180418        0.1790101758
H                -4.8857049370        0.7449719593       -0.7690501072
H                -1.9469693945       -3.6136525945        1.0374520997
H                -3.1185343076       -3.5632680137       -0.3038616742
H                -3.6031392140       -3.0605061972        1.3477676198
H                 4.9864592394       -0.6278742855        0.4982759089
H                 7.7910600980        0.7428951604       -1.5252778182
H                 9.6334371131       -0.2253832844       -1.7542790194
H                12.0746397991       -0.0530141531       -1.4893671936
H                11.6091878147        0.2301845707        2.7736982081
H                 9.1343769828        0.0574410188        2.5040490191



