%chk=calculation/no_transfer_pubchem_sampling_3_b3lyp/7715084_rwf.chk
%rwf=calculation/no_transfer_pubchem_sampling_3_b3lyp/7715084_rwf.rwf
%nprocshared=14
%mem=3GB
#p b3lyp/6-31g(d) 6D 10F nosymm GFInput td=(50-50,nstate=2) SCF=XQC 

Gaussian input prepared by ASE

0 1
C                -4.2654124106        1.7675015441       -1.1349173677
C                -4.3096759125        0.2638690671       -0.8180005889
C                -3.0195444347       -0.2153188298       -0.1035148498
N                -1.8028223473        0.0013755076       -0.8740970193
C                -1.4027982294       -0.8687154775       -1.8375340294
O                -2.0203859634       -1.8806817209       -2.1518514664
C                -0.0985959494       -0.4918676787       -2.5615456780
O                 1.0572446690       -0.4510843819       -1.6957850267
C                 1.3236821756        0.7089803534       -1.0569642880
O                 0.5768397312        1.6771678196       -1.0983507155
C                 2.6037276794        0.6727720402       -0.3092289235
C                 2.9844869445        1.8210260898        0.3985013797
C                 4.1810514043        1.8333364527        1.1090230154
C                 5.0051541804        0.7040304835        1.1332265361
C                 4.6247763162       -0.4531652123        0.4239153433
C                 3.4324572475       -0.4601515394       -0.2958518516
C                 5.5670785259       -1.6308064923        0.4828999508
C                 7.0230913451       -1.1938841351        0.1969588417
C                 7.4439799864        0.0819711051        0.9834343315
C                 6.3144787469        0.6458296245        1.8786660545
C                -5.5291454644       -0.1372953327       -0.0007706330
C                -6.3487767141       -1.1913070968       -0.4267056025
C                -7.4572500258       -1.5914778952        0.3212509636
C                -7.7658567198       -0.9430835913        1.5176223403
C                -6.9565962715        0.1059173583        1.9579450838
C                -5.8505211539        0.5029417958        1.2058098225
H                -5.1709722126        2.0808708140       -1.6649490421
H                -4.1861076628        2.3745024054       -0.2247506121
H                -3.4036663608        2.0040009052       -1.7686195537
H                -4.3505960714       -0.2841442680       -1.7668620482
H                -3.1013823173       -1.2870228140        0.0968945206
H                -2.9060902108        0.3010367760        0.8564639790
H                -1.2600196529        0.8497390039       -0.7518650622
H                 0.1109055052       -1.2807380041       -3.2819805462
H                -0.2017651678        0.4741014079       -3.0657052599
H                 2.3363364317        2.6906600041        0.3748355096
H                 4.4792463520        2.7274260118        1.6515554122
H                 3.1370620655       -1.3453049116       -0.8497219246
H                 5.2592274408       -2.4123744357       -0.2204177474
H                 5.5204600299       -2.0817106964        1.4857983975
H                 7.1205062526       -1.0066022290       -0.8782767281
H                 7.6964475791       -2.0269416526        0.4278566438
H                 8.3208454884       -0.1224689064        1.6079116286
H                 7.7439314236        0.8634897477        0.2764041185
H                 6.1972926446       -0.0075057423        2.7567388827
H                 6.5903731885        1.6337537973        2.2638970912
H                -6.1125421556       -1.7042248154       -1.3563363453
H                -8.0793613253       -2.4097181802       -0.0324975806
H                -8.6289517727       -1.2512630223        2.1018069095
H                -7.1871548703        0.6181334731        2.8887549781
H                -5.2346969774        1.3244254743        1.5640087560



