%chk=./calculation/no_transfer_pubchem_sampling_3_b3lyp/7715084.chk
%nprocshared=7
%mem=6GB
#p b3lyp/6-31g(d) opt SCF=XQC 

Gaussian input prepared by ASE

0 1
C                -3.7414524479        1.8045505863       -0.4942982342
C                -4.1024313884        0.3290321811       -0.6795506066
C                -2.9874521192       -0.5923165112       -0.1519351339
N                -1.7736714342       -0.4587407261       -0.9199398766
C                -1.3473854468       -1.3973893191       -1.7779808576
O                -1.8883887953       -2.4660180408       -1.9635504727
C                -0.0752303692       -0.9904601307       -2.5462090460
O                 1.0563628583       -0.7866590811       -1.7080123046
C                 1.2174013693        0.4126773087       -1.1388500021
O                 0.4027912388        1.3090827647       -1.2422533466
C                 2.4772962146        0.5256849642       -0.3834872192
C                 2.7738851312        1.7397331301        0.2344067493
C                 3.9487744499        1.8863887136        0.9450259755
C                 4.8319180689        0.8228716174        1.0565172304
C                 4.5371379550       -0.3967444338        0.4411008523
C                 3.3680083648       -0.5422474180       -0.2800647308
C                 5.5526045836       -1.4835514716        0.5981419731
C                 6.9449751132       -0.9552495027        0.2244496829
C                 7.2654573134        0.3978239080        0.8867612302
C                 6.1303170049        0.8978465545        1.7918012937
C                -5.4045780372       -0.0057428851        0.0045406271
C                -6.4691084286       -0.5172001203       -0.7259521124
C                -7.6683205883       -0.8295163580       -0.1099645412
C                -7.8198486564       -0.6358616504        1.2516503247
C                -6.7644054852       -0.1299641063        1.9909117557
C                -5.5673474109        0.1817434917        1.3722382950
H                -4.5612092647        2.4323135980       -0.8367037126
H                -3.5532888015        2.0300437479        0.5525659974
H                -2.8531504006        2.0615257671       -1.0666565123
H                -4.2125361324        0.1291293555       -1.7508631107
H                -3.3049545813       -1.6348363962       -0.2329875641
H                -2.7743865700       -0.3629109577        0.8960797060
H                -1.2882359670        0.4305033583       -0.8880102443
H                 0.1974220971       -1.8039289320       -3.2203124491
H                -0.2806422045       -0.0749797135       -3.1143917633
H                 2.0734008371        2.5553001970        0.1392499105
H                 4.1815613923        2.8296607477        1.4176406510
H                 3.1349160408       -1.4789151746       -0.7624474652
H                 5.3016786684       -2.3440076433       -0.0229794188
H                 5.5627533157       -1.8139394547        1.6410748280
H                 6.9876128542       -0.8463539519       -0.8603809658
H                 7.6900730526       -1.7004552134        0.5062361077
H                 8.1794539409        0.3234342878        1.4774641064
H                 7.4371921950        1.1488814352        0.1139555798
H                 6.0750583360        0.2625470872        2.6807842128
H                 6.3367305574        1.9174009949        2.1200141612
H                -6.3576537684       -0.6740500033       -1.7894294834
H                -8.4856194053       -1.2255327268       -0.6948838037
H                -8.7546865026       -0.8784609024        1.7350747367
H                -6.8741710984        0.0222992104        3.0549667554
H                -4.7546326492        0.5755578178        1.9645222346



