%chk=calculation/no_transfer_pubchem_sampling_3_b3lyp/78878565_rwf.chk
%rwf=calculation/no_transfer_pubchem_sampling_3_b3lyp/78878565_rwf.rwf
%nprocshared=14
%mem=3GB
#p b3lyp/6-31g(d) 6D 10F nosymm GFInput td=(50-50,nstate=2) SCF=XQC 

Gaussian input prepared by ASE

0 1
C                 5.1335418167       -0.6011710527        3.9291907522
C                 5.3786213688       -0.5450499876        2.6193772102
C                 5.0014939191        0.6027889277        1.7174777367
C                 4.1007739792        0.1964250714        0.5591645129
C                 2.9538125451       -0.5646708132        0.7701363576
C                 2.1160301911       -0.9116882263       -0.2965345086
C                 2.4180919144       -0.5101374347       -1.5951371776
O                 1.6842696402       -0.8088032418       -2.7129028344
C                 0.5789426046       -1.6956034951       -2.5933284096
C                -0.6757103540       -1.0531815852       -2.0313078956
C                -0.9501749491        0.3015549026       -2.2576315839
C                -2.1336296967        0.8678777491       -1.7956806350
C                -3.0624040631        0.1021624150       -1.0759326918
C                -4.3430084364        0.7751437990       -0.6625894219
O                -4.8628289676        1.6212466322       -1.3913418714
N                -4.9247106943        0.4215711665        0.5273124805
C                -6.1622936825        1.1218568243        0.9200255770
C                -6.3901257822        0.6850570971        2.3739969522
C                -4.9656783533        0.4246931334        2.8897806460
C                -4.2835962347       -0.2333013311        1.6813018254
C                -2.7933992311       -1.2551096404       -0.8607708826
C                -1.6118804856       -1.8248691057       -1.3358249062
C                 3.5790555873        0.2675548560       -1.8241687767
O                 3.8010319764        0.6248074472       -3.1223152376
C                 4.9498204214        1.4013608629       -3.4114082525
C                 4.4014406663        0.6058541105       -0.7506864072
H                 4.6275897624        0.2092038995        4.4508473172
H                 5.4328970880       -1.4543636880        4.5321985046
H                 5.8822596706       -1.3810082770        2.1324112756
H                 4.5152208295        1.3846596859        2.3177836969
H                 5.9156443501        1.0557077598        1.3076628950
H                 2.7020197691       -0.8948930740        1.7739652325
H                 1.2164880157       -1.4833028020       -0.1000842792
H                 0.3956246141       -2.0264671964       -3.6220886143
H                 0.8568364094       -2.5831923063       -2.0082797784
H                -0.2279454389        0.9053318106       -2.7986683348
H                -2.3637300985        1.9098896803       -1.9931852292
H                -6.9840807084        0.8538482199        0.2488257926
H                -6.0135165974        2.2048182891        0.8293870766
H                -6.9285257593        1.4408578851        2.9533613378
H                -6.9768009559       -0.2412851230        2.4077637141
H                -4.4695941371        1.3735040454        3.1275774327
H                -4.9321297920       -0.2075591188        3.7824109145
H                -3.2005909851       -0.0892696922        1.6627023334
H                -4.4787166456       -1.3153102320        1.6787093062
H                -3.5131848156       -1.8787037831       -0.3396723841
H                -1.4209909280       -2.8827116032       -1.1652088450
H                 4.9273542696        2.3689133276       -2.8916198046
H                 4.9309628729        1.5713473335       -4.4896260572
H                 5.8750837104        0.8727803962       -3.1441703573
H                 5.2943407998        1.1974664819       -0.9232067043



