%chk=calculation/no_transfer_pubchem_sampling_3_b3lyp/82122762_rwf.chk
%rwf=calculation/no_transfer_pubchem_sampling_3_b3lyp/82122762_rwf.rwf
%nprocshared=14
%mem=3GB
#p b3lyp/6-31g(d) 6D 10F nosymm GFInput td=(50-50,nstate=2) SCF=XQC 

Gaussian input prepared by ASE

0 1
C                 5.2803661346        1.8983232661        0.4992563588
O                 4.8583156596        1.0655358422       -0.5705285100
C                 3.7227245643        0.3300854004       -0.4099824324
C                 2.9240565451        0.3369658585        0.7416967697
C                 1.7821564977       -0.4625641539        0.7943047512
C                 1.4166650158       -1.2718746021       -0.2858248361
C                 0.1265427221       -2.0821544936       -0.1872039471
C                 0.1163759807       -3.2449357288       -1.0965983072
N                 0.1073017211       -4.1440761272       -1.8303877378
N                -1.0804275862       -1.2848254886       -0.4199286745
C                -1.8150859674       -0.8080370652        0.6425963904
O                -1.5287337245       -1.0850334973        1.8048511337
C                -2.9839088894        0.0642675654        0.2949664074
C                -3.4722359379        0.9155658566        1.2954401305
C                -4.5537255309        1.7541664985        1.0381260946
C                -5.1671389878        1.7404172862       -0.2172996019
C                -4.6989465954        0.8803955473       -1.2124510846
C                -3.6112064632        0.0451142132       -0.9591510550
C                 2.2233418532       -1.2719615086       -1.4317469004
C                 3.3641897915       -0.4815671503       -1.4958453053
H                 5.4953649072        1.3146467234        1.4038202823
H                 6.1962326862        2.3827290625        0.1564600802
H                 4.5303658296        2.6650836052        0.7336108906
H                 3.1821847672        0.9497074127        1.5976504251
H                 1.1615067098       -0.4513807881        1.6863349351
H                 0.0154652734       -2.4524467837        0.8376734697
H                -1.1662883833       -0.8297995485       -1.3186494759
H                -2.9897478916        0.9009248397        2.2670678607
H                -4.9215111412        2.4166951863        1.8167266828
H                -6.0136236085        2.3919097755       -0.4168337830
H                -5.1859493928        0.8520686646       -2.1831565821
H                -3.2817370919       -0.6466654923       -1.7296521420
H                 1.9689345103       -1.9069896614       -2.2761758541
H                 3.9981780229       -0.4802885146       -2.3767544330



