%chk=./calculation/no_transfer_pubchem_sampling_3_b3lyp/84618673.chk
%nprocshared=7
%mem=6GB
#p b3lyp/6-31g(d) opt SCF=XQC 

Gaussian input prepared by ASE

0 1
C                -2.2317157421       -1.3159045391        1.3387354065
C                -1.1246870413       -0.9888157057        0.3442614789
N                 0.1524325642       -1.0729884769        1.0016235574
C                 1.2586762499       -0.4601766518        0.4637396539
C                 2.5411931661       -0.6803109200        0.9579308054
C                 3.6327153763       -0.0675207822        0.3723905365
C                 3.4634362213        0.7689317391       -0.7179970768
C                 2.1919968696        1.0155167345       -1.2078027648
C                 1.0942850568        0.4137793580       -0.6191344860
O                -0.1593444345        0.6833904665       -1.1244794306
C                -1.2227806425        0.4435110615       -0.2302592729
C                -2.5126237847        0.6828176970       -1.0253553308
C                -2.5885025913        2.0586916448       -1.4502335841
N                -2.6574650207        3.1534038806       -1.7686290607
H                -3.1965115618       -1.3889788380        0.8454931507
H                -2.0252879184       -2.2742038866        1.8109683540
H                -2.2835150986       -0.5526399258        2.1123252859
H                -1.1723562599       -1.6919835074       -0.5078357019
H                 0.2701571597       -1.7047011663        1.7737649647
H                 2.6694001550       -1.3421342520        1.8026238377
H                 4.6207842183       -0.2515149886        0.7665942786
H                 4.3164523220        1.2390879340       -1.1816174685
H                 2.0292738197        1.6743979202       -2.0457631350
H                -1.1654206173        1.1531690697        0.6124276794
H                -2.5120217303        0.0424157548       -1.9110899740
H                -3.3885697353        0.4627613797       -0.4126827035



