%chk=calculation/no_transfer_pubchem_sampling_3_b3lyp/8631404_rwf.chk
%rwf=calculation/no_transfer_pubchem_sampling_3_b3lyp/8631404_rwf.rwf
%nprocshared=14
%mem=3GB
#p b3lyp/6-31g(d) 6D 10F nosymm GFInput td=(50-50,nstate=2) SCF=XQC 

Gaussian input prepared by ASE

0 1
C                 0.2458995010       -0.5883536252       -2.4592407956
C                 0.7492572452       -0.0740401219       -1.1122694974
O                 2.1331392183       -0.4386469401       -1.0334797078
C                 2.8551056779        0.1803737845       -0.0631500022
O                 2.4153201273        1.0618222310        0.6487200207
C                 4.2326093718       -0.3216755892       -0.0073358587
C                 5.2142252397        0.1448693001        0.8365407351
C                 6.4523199323       -0.5300366735        0.6709737276
C                 6.3933616786       -1.5019463482       -0.2968058813
S                 4.8279640087       -1.6117462872       -1.0204092801
C                 0.0034204677       -0.7288759924        0.0692926594
O                 0.5439714043       -1.6133007950        0.7202050786
N                -1.2964618095       -0.3553153922        0.3379732349
C                -2.1695186207        0.6127270418       -0.2242418167
C                -1.9036822481        1.7344984170       -1.0148519482
C                -2.9732751471        2.5437151779       -1.4150454405
C                -4.2827241692        2.2591921877       -1.0309337043
C                -4.5403867123        1.1443584147       -0.2250214364
C                -3.4893188509        0.3312151445        0.1745749141
C                -3.5133738850       -0.9156350390        1.0248824898
C                -2.0264117568       -1.1246382447        1.3933643430
C                -1.6694820139       -0.6042947716        2.7876147820
H                -0.8037550415       -0.3228491048       -2.6106127018
H                 0.3459372039       -1.6771705676       -2.5032726084
H                 0.8380703043       -0.1516956440       -3.2689447130
H                 0.6899840156        1.0123922509       -1.0382445172
H                 5.0284237419        0.9448206754        1.5436277229
H                 7.3463380764       -0.3081068018        1.2430518088
H                 7.1860851823       -2.1632096111       -0.6221384630
H                -0.9007766022        2.0101014631       -1.3111240150
H                -2.7662747531        3.4165406921       -2.0281446658
H                -5.0974194565        2.9036761130       -1.3477590007
H                -5.5556101755        0.9160863204        0.0904336968
H                -4.1375306124       -0.8102803049        1.9186516330
H                -3.9044341648       -1.7691843242        0.4543067589
H                -1.7199468220       -2.1678848483        1.3070304142
H                -2.1984955997       -1.1874151203        3.5506769162
H                -1.9573943039        0.4476335374        2.8978988481
H                -0.5951566524       -0.6977196044        2.9632052699



