%chk=./calculation/no_transfer_pubchem_sampling_3_b3lyp/8679880.chk
%nprocshared=7
%mem=6GB
#p b3lyp/6-31g(d) opt SCF=XQC 

Gaussian input prepared by ASE

0 1
C                -6.8530623694       -0.6669116594        1.0553104854
O                -6.3269248677       -1.5235176155        0.0680517181
C                -5.8077474850       -0.8770171719       -1.0633000611
C                -4.4748778468       -0.1586901649       -0.7963739531
N                -3.5878637164       -1.0860549656       -0.1401699656
C                -2.2777141761       -0.9290979306        0.1618893063
S                -1.5450115787       -2.1419264019        1.0156176028
N                -1.7020237490        0.2229902195       -0.2610104183
C                -0.3859366228        0.6888148952       -0.1809116880
C                -0.1785625914        2.0395982569       -0.4691043254
C                 1.0954286338        2.5676118343       -0.3983984419
C                 2.1776743975        1.7761439787       -0.0637646480
C                 1.9871499002        0.4163807239        0.1845896986
N                 3.0130433823       -0.4328927064        0.5427152062
C                 4.3727793097       -0.3051545993        0.3200193866
C                 5.2542853052       -0.9940570617        1.1567116010
C                 6.6179257469       -0.9150526880        0.9598995452
C                 7.1324212374       -0.1530335878       -0.0764683043
C                 6.2639993407        0.5087479405       -0.9279893641
C                 4.8969265730        0.4320497283       -0.7423723788
C                 0.6964223617       -0.1144786853        0.1324719312
H                -7.3414093046       -1.3098640561        1.7843866075
H                -7.5893175037        0.0227636961        0.6265926153
H                -6.0706664640       -0.0889977188        1.5581790275
H                -5.6456466254       -1.6732610800       -1.7941490595
H                -6.5307106253       -0.1556529977       -1.4713658861
H                -4.0630727529        0.1643503610       -1.7601286797
H                -4.6496911679        0.7315276371       -0.1728271017
H                -4.0284257425       -1.9073430743        0.2531748578
H                -2.3354932994        0.9099839654       -0.6485358090
H                -1.0160054806        2.6713235940       -0.7311133262
H                 1.2465484293        3.6186722761       -0.5955853283
H                 3.1574754841        2.2144745854        0.0339001247
H                 2.7268167857       -1.2661289417        1.0363458180
H                 4.8552239166       -1.5921629565        1.9641658891
H                 7.2841809977       -1.4502093801        1.6207164909
H                 8.1992350874       -0.0866941983       -0.2266087111
H                 6.6539327655        1.0839500880       -1.7553617646
H                 4.2308449468        0.9181789310       -1.4380340072
H                 0.5478503680       -1.1593600694        0.3453063100



