%chk=calculation/no_transfer_pubchem_sampling_3_b3lyp/8679880_rwf.chk
%rwf=calculation/no_transfer_pubchem_sampling_3_b3lyp/8679880_rwf.rwf
%nprocshared=14
%mem=3GB
#p b3lyp/6-31g(d) 6D 10F nosymm GFInput td=(50-50,nstate=2) SCF=XQC 

Gaussian input prepared by ASE

0 1
C                -6.9449457688       -0.5558400530        0.9994739054
O                -6.4047211159       -1.4645623192        0.0524788187
C                -5.8312486795       -0.8543104763       -1.0870632265
C                -4.4724374609       -0.2000589846       -0.7991808393
N                -3.6266877160       -1.1596156057       -0.1120878681
C                -2.3187863524       -1.0148590314        0.2574800163
S                -1.6146164464       -2.1752885373        1.2570784886
N                -1.7175307320        0.1051656368       -0.2519624206
C                -0.3980438011        0.6102237182       -0.1469176276
C                -0.2387140434        1.9849624136       -0.3916377081
C                 1.0336811582        2.5442205967       -0.3419442469
C                 2.1551522257        1.7706342601       -0.0495505367
C                 1.9999721623        0.3921444595        0.1745193971
N                 3.0624163253       -0.4520647907        0.5044558532
C                 4.4361296784       -0.2921772221        0.2895332254
C                 5.3281535182       -0.9834120086        1.1296701852
C                 6.7027674507       -0.8996521162        0.9286854333
C                 7.2235248213       -0.1149007160       -0.1027774441
C                 6.3420713548        0.5687863723       -0.9415211957
C                 4.9624564852        0.4794312565       -0.7614678791
C                 0.7176750132       -0.1832132023        0.1140218723
H                -7.4348428516       -1.1599008551        1.7663056152
H                -7.6892851773        0.1077616913        0.5337236196
H                -6.1714537537        0.0604125955        1.4794073156
H                -5.6954472769       -1.6614321385       -1.8134732817
H                -6.5101875682       -0.1036483659       -1.5211294030
H                -4.0330832986        0.0886915306       -1.7647820697
H                -4.6051522403        0.7205789903       -0.2070197666
H                -4.1117116734       -1.9043931874        0.3743493183
H                -2.3338952545        0.7501323722       -0.7286104910
H                -1.1057430132        2.6079133989       -0.5999438163
H                 1.1542201455        3.6107392567       -0.5121251459
H                 3.1302435252        2.2347392391        0.0348070050
H                 2.7971599733       -1.2969035035        0.9912175553
H                 4.9319501989       -1.5823468754        1.9469023941
H                 7.3705193786       -1.4446767175        1.5909523855
H                 8.2966775381       -0.0419440784       -0.2525866671
H                 6.7278408809        1.1700351759       -1.7610433930
H                 4.2935011959        0.9836977587       -1.4495289766
H                 0.5924221943       -1.2450669374        0.2777625996



