%chk=calculation/no_transfer_pubchem_sampling_3_b3lyp/86815437_rwf.chk
%rwf=calculation/no_transfer_pubchem_sampling_3_b3lyp/86815437_rwf.rwf
%nprocshared=14
%mem=3GB
#p b3lyp/6-31g(d) 6D 10F nosymm GFInput td=(50-50,nstate=2) SCF=XQC 

Gaussian input prepared by ASE

0 1
C                 6.4922517881        0.6332466147       -0.0675534579
N                 5.7087720674        0.3397839666       -1.2561222741
C                 6.4740501420        0.1193294141       -2.4758198976
C                 4.3534707413        0.1064050761       -1.2771414595
O                 3.7481932265       -0.2128300634       -2.2875906446
C                 3.6193623156        0.2901209735        0.0644008461
O                 2.2623591518       -0.0160863306       -0.1529177414
C                 1.4005762972        0.0698398599        0.9027356842
C                 1.7460030393        0.4785671009        2.1947801680
C                 0.7615786373        0.5042029777        3.1901477498
C                -0.5471332462        0.1313363990        2.9136575335
C                -0.8995991814       -0.2518795587        1.6082464327
C                -2.3145424408       -0.7195106755        1.3899417533
O                -2.8564395561       -1.4311378052        2.2312419714
N                -2.9680211919       -0.3193881733        0.2403827010
C                -2.5162112158        0.7224431806       -0.7183659785
C                -3.8145382211        1.2585406099       -1.3648322194
C                -4.7987260775        0.1579872249       -1.0673718035
C                -6.0722937464       -0.0577912719       -1.5597496226
F                -6.5646155033        0.7901442325       -2.4924554901
C                -6.8519770510       -1.1223038473       -1.1152145844
C                -6.3234882852       -1.9712546891       -0.1398554697
C                -5.0422888930       -1.7854146345        0.3901960379
C                -4.2895789523       -0.7125685371       -0.0943523581
C                 0.0760921985       -0.2903223107        0.6133079408
H                 7.2134273879        1.4284359239       -0.2919635833
H                 5.8653230613        0.9815026940        0.7533882253
H                 7.0560902060       -0.2471797049        0.2745698470
H                 5.7768294236       -0.0905609300       -3.2856008946
H                 7.1602412199       -0.7304520548       -2.3574170989
H                 7.0652845581        1.0112235692       -2.7180354844
H                 3.7329988741        1.3265963460        0.4174541108
H                 4.0480893862       -0.3718979683        0.8313841913
H                 2.7619239927        0.7667382696        2.4397122540
H                 1.0350133919        0.8139885489        4.1951911858
H                -1.3042605818        0.1195221291        3.6898458460
H                -1.9402215494        1.4908870317       -0.2019873770
H                -1.8751771936        0.2695115796       -1.4827555964
H                -3.6841518687        1.4468901725       -2.4345244214
H                -4.1336519091        2.2035791612       -0.9052732084
H                -7.8449932941       -1.2685470631       -1.5264655263
H                -6.9246341202       -2.8022340869        0.2182352225
H                -4.6465882866       -2.4362088996        1.1558409074
H                -0.1448027410       -0.6232544513       -0.3946684163



