%chk=./calculation/no_transfer_pubchem_sampling_3_b3lyp/88036587.chk
%nprocshared=7
%mem=6GB
#p b3lyp/6-31g(d) opt SCF=XQC 

Gaussian input prepared by ASE

0 1
C                 5.5022375797       -1.0409320842       -1.8274012936
C                 4.3986201035       -1.8368797718       -1.1173247034
C                 3.4148532303       -2.3338049394       -2.1807115854
C                 4.9976127726       -3.0656606346       -0.4190707069
C                 3.7253764582       -0.9455856161       -0.0816468349
C                 2.3839039839       -0.6232407203       -0.1603720687
C                 1.7410301249        0.2127613250        0.7577295833
C                 0.3067709636        0.4948844326        0.5418933545
O                -0.3339578569       -0.0371063346       -0.3363434385
C                -0.3440973010        1.5021489464        1.4886306683
N                -1.7095494103        1.7255793731        1.1220454671
C                -2.7253199212        0.9383172901        1.6253589894
N                -2.5427542846        0.1857916384        2.6319962475
N                -3.8595247448        1.2108208789        0.8694422474
C                -5.1031389253        0.4951387854        0.9309923115
C                -5.2850046073       -0.4468539060       -0.2378020854
C                -6.5554615996       -0.6928066246       -0.7407187968
C                -6.7326708391       -1.5571852298       -1.8061041814
C                -5.6385786600       -2.1788846073       -2.3832935870
C                -4.3695078837       -1.9356981084       -1.8871482053
C                -4.1913719568       -1.0763372638       -0.8175722505
C                -3.5192893064        2.0793694679       -0.1496965734
C                -4.2643822298        2.6102394491       -1.1818703609
C                -3.6195078529        3.4762670436       -2.0559665506
C                -2.2783797402        3.7901857157       -1.9029832846
C                -1.5218570816        3.2523583515       -0.8695907823
C                -2.1581108772        2.3953758111        0.0044178023
C                 2.4744194966        0.7265937286        1.8161162660
C                 3.8147243045        0.3952057626        1.9516757514
C                 4.5316998142        0.9728521165        3.1260851574
N                 5.4236934610        0.1196984192        3.7372398798
O                 4.3810296037        2.1111388390        3.5032227941
C                 4.4565869069       -0.4121785450        0.9987834903
O                 5.7828310448       -0.6647175167        1.0949479811
H                 5.0813788773       -0.1555986251       -2.2993506559
H                 6.2718949657       -0.7310733906       -1.1285035918
H                 5.9640588531       -1.6559613713       -2.5961499996
H                 2.6143710583       -2.9195369250       -1.7354287788
H                 3.9454095985       -2.9718832037       -2.8842328687
H                 2.9851178345       -1.5062983897       -2.7396193885
H                 5.7708087698       -2.7770613872        0.2849939606
H                 4.2208726476       -3.6102783779        0.1141806314
H                 5.4393544813       -3.7303176795       -1.1576357994
H                 1.7715578285       -1.0035263202       -0.9610213235
H                 0.2087704481        2.4449052949        1.4801277049
H                -0.3568147565        1.0814769068        2.4987461267
H                -3.3582350871       -0.3320447006        2.9341480844
H                -5.9315209947        1.2130368073        0.9647051743
H                -5.1194021869       -0.0752272692        1.8679664284
H                -7.4109005382       -0.2041033472       -0.2947143113
H                -7.7259297830       -1.7409332154       -2.1891432443
H                -5.7757950300       -2.8494209759       -3.2188117868
H                -3.5110032925       -2.4149639204       -2.3332496723
H                -3.1951514483       -0.8940483442       -0.4414764052
H                -5.3041990870        2.3560707482       -1.3153475092
H                -4.1757065018        3.9071632658       -2.8747486222
H                -1.8073865704        4.4620766282       -2.6046105428
H                -0.4744747572        3.4896851767       -0.7654194631
H                 2.0380445073        1.3721506578        2.5609385527
H                 5.8167726080        0.4541124659        4.6055901028
H                 5.2734857606       -0.8756250803        3.6817152040
H                 6.1616950253       -0.1796299001        1.8447042912



