%chk=./calculation/no_transfer_pubchem_sampling_3_b3lyp/89310711.chk
%nprocshared=7
%mem=6GB
#p b3lyp/6-31g(d) opt SCF=XQC 

Gaussian input prepared by ASE

0 1
C                 2.3820915569       -2.9898061213       -2.0863902772
O                 3.0281750525       -1.7858559355       -2.4319830807
C                 3.4002805324       -0.9419981697       -1.4281299771
C                 4.0725907920        0.2179139048       -1.8160309067
C                 4.4480355720        1.1438551932       -0.8658988415
C                 4.1489524849        0.9453047220        0.4733738785
C                 3.4959480310       -0.2111580020        0.8713388618
C                 3.0240430351       -0.4420647602        2.2946723317
C                 3.9141944253        0.1575348860        3.3734501898
N                 1.6740459706        0.1046053317        2.4107216947
C                 0.6273955988       -0.5748368684        1.8624273191
O                 0.6671485141       -1.7550999543        1.5828407781
N                -0.5302235269        0.1727963373        1.7176117903
C                -1.4487142042       -0.3111248591        0.7001525801
C                -2.7363511710        0.4734714992        0.7660172830
C                -2.7760314065        1.7801027646        0.2928627036
C                -3.9416917091        2.5172914027        0.3705208144
C                -5.0783519445        1.9427015575        0.9251196703
C                -6.3294837612        2.7677968931        1.0260054582
F                -6.5566670773        3.4957644722       -0.0806888826
F                -6.2655741548        3.6538156726        2.0420251114
F                -7.4324731435        2.0382720869        1.2361224359
C                -5.0482206600        0.6418421685        1.4064400281
C                -3.8762772043       -0.0877842614        1.3241082152
C                -0.7867573056       -0.1866006011       -0.6629741567
N                 0.1346465294        0.7620906643       -0.7524392189
C                 0.8126092231        0.9178503723       -1.8737267205
C                 0.6203192655        0.1217132783       -2.9914859940
C                -0.3538021264       -0.8585449415       -2.9271033086
C                -1.0810045388       -1.0131747350       -1.7512215182
C                -2.1578406973       -2.0577520959       -1.6740952842
F                -3.3500315520       -1.5379946479       -1.3219872320
F                -2.3573735295       -2.6772629203       -2.8464919148
F                -1.8942809952       -3.0259697037       -0.7827617996
C                 3.1379271249       -1.1579383617       -0.0829202530
H                 2.1506469360       -3.4807049652       -3.0303603042
H                 1.4560685824       -2.8093435179       -1.5316056604
H                 3.0352184351       -3.6359380952       -1.4925979182
H                 4.2858270636        0.3681970979       -2.8626367140
H                 4.9706790430        2.0386624860       -1.1709191036
H                 4.4349018875        1.6935576716        1.1957320610
H                 2.9226641206       -1.5196771893        2.4588553396
H                 3.5522112758       -0.1386819829        4.3544590686
H                 4.9331885302       -0.1988816220        3.2511306758
H                 3.9144215053        1.2438118878        3.3244390343
H                 1.6211608956        1.1119858120        2.4308653703
H                -0.4127435679        1.1759104835        1.7052149658
H                -1.6290913169       -1.3666269856        0.9254298692
H                -1.8909339411        2.2190310130       -0.1436396707
H                -3.9772130784        3.5301627138       -0.0007073765
H                -5.9357144680        0.2040137668        1.8360287730
H                -3.8493836648       -1.1006929962        1.6935428873
H                 1.5454768996        1.7128790834       -1.8636946030
H                 1.2130259058        0.2578423248       -3.8800671770
H                -0.5494235830       -1.5006498438       -3.7726369084
H                 2.6217585394       -2.0446124106        0.2456266131



