%chk=calculation/no_transfer_pubchem_sampling_3_b3lyp/89310711_rwf.chk
%rwf=calculation/no_transfer_pubchem_sampling_3_b3lyp/89310711_rwf.rwf
%nprocshared=14
%mem=3GB
#p b3lyp/6-31g(d) 6D 10F nosymm GFInput td=(50-50,nstate=2) SCF=XQC 

Gaussian input prepared by ASE

0 1
C                 2.5182655343       -3.7175033959       -1.0575389473
O                 3.8107007692       -3.1449714175       -1.2034439624
C                 4.1574207301       -2.1153132521       -0.3765354891
C                 5.4427134761       -1.5834549713       -0.5711193582
C                 5.8741695891       -0.5317150334        0.2248460624
C                 5.0427928072        0.0088349056        1.2147553156
C                 3.7641866232       -0.5156151636        1.4134962792
C                 2.7767132730        0.0589762964        2.4333745438
C                 3.4043294722        0.9179346406        3.5334815389
N                 1.7158929372        0.8304433012        1.7592472279
C                 0.5862212007        0.1880521239        1.2890280763
O                 0.2629222840       -0.9507457974        1.6361089596
N                -0.1831214595        0.9336003912        0.4253088112
C                -1.2966547201        0.3186669448       -0.2823354135
C                -2.6486888047        0.7216355952        0.3196502708
C                -3.3340903703        1.8791407683       -0.0654982504
C                -4.5387657604        2.2256269100        0.5442536127
C                -5.0716368119        1.4150207915        1.5486192047
C                -6.3433949340        1.8159180730        2.2435740054
F                -7.1620420223        2.5229387111        1.4310991138
F                -6.1010403907        2.5950656703        3.3251198517
F                -7.0382085400        0.7432588845        2.6846220344
C                -4.3916203586        0.2600234432        1.9449319209
C                -3.1895229597       -0.0820117561        1.3319548473
C                -1.1800422610        0.6356520333       -1.7720923751
N                -0.7544496054        1.8731248879       -2.0639363717
C                -0.6321985181        2.2376256327       -3.3451956121
C                -0.9233909304        1.3905190276       -4.4107604565
C                -1.3544867101        0.0998062954       -4.1189997622
C                -1.4892310706       -0.2913866952       -2.7862702795
C                -1.9171282461       -1.7035354493       -2.4677102190
F                -2.9745046756       -1.7367702968       -1.6299926243
F                -2.2635288539       -2.3846816718       -3.5795788710
F                -0.9192456653       -2.4022074913       -1.8704624390
C                 3.3275356717       -1.5881468445        0.6146315469
H                 2.4606795317       -4.5134348164       -1.8025814698
H                 1.7228396180       -2.9850502363       -1.2461745294
H                 2.3777368126       -4.1463750088       -0.0570743597
H                 6.0747722009       -2.0126338291       -1.3423589580
H                 6.8706347272       -0.1231284029        0.0768403939
H                 5.4064613835        0.8293007475        1.8250145704
H                 2.2491141477       -0.7764819298        2.8998469528
H                 2.6357605087        1.2106074669        4.2545597092
H                 4.1878056017        0.3634816634        4.0601953431
H                 3.8524871783        1.8354511803        3.1332162901
H                 2.0499407044        1.6146076091        1.2105029880
H                 0.1069253776        1.8448905331        0.0962529670
H                -1.1768231386       -0.7528983655       -0.1247217330
H                -2.9272420803        2.5174970739       -0.8432556558
H                -5.0689251425        3.1202157262        0.2339477332
H                -4.8070021054       -0.3727503939        2.7225010779
H                -2.6514587623       -0.9710138815        1.6479957857
H                -0.2827927057        3.2531830541       -3.5206459638
H                -0.8085950093        1.7270594251       -5.4358476113
H                -1.5811379321       -0.6031424264       -4.9126416861
H                 2.3319473845       -1.9831902803        0.7797363633



