%chk=./calculation/no_transfer_pubchem_sampling_3_b3lyp/89572099.chk
%nprocshared=7
%mem=6GB
#p b3lyp/6-31g(d) opt SCF=XQC 

Gaussian input prepared by ASE

0 1
O                 3.2026678179       -2.6236062195       -1.1414587668
S                 3.1324759626       -1.5207338701       -2.0462447896
O                 4.3453998424       -0.8853400932       -2.4460527095
O                 2.3824337149       -2.0785732824       -3.3846027290
C                 1.9334675439       -0.2660114148       -1.5092428432
C                 0.6106057793       -0.9642601818       -1.2701454996
C                -0.4296273731       -0.0058355945       -0.6842901231
C                -1.6805175620       -0.7366525572       -0.2338813172
C                -2.9069885665        0.0801456374       -0.0176744453
C                -4.1567610100       -0.5099657289       -0.1746747381
C                -5.3112405638        0.2045816667        0.0881754626
C                -5.2328090468        1.5205409438        0.5121071968
C                -3.9932415236        2.1148999479        0.6745977372
C                -2.8364272551        1.3997217993        0.4162783370
S                -1.3287421007       -1.4645529359        1.4058474669
O                -0.1612953146       -2.2811727645        1.3494443568
O                -2.5225580734       -2.0148360526        1.9726539003
O                -0.9653036969       -0.1487895522        2.2730942213
C                 2.5951992412        0.3514142449       -0.3219106309
C                 3.3363259400        1.5172575299       -0.4817361429
C                 4.0141969644        2.0727018333        0.5884097944
C                 3.9604846939        1.4662328336        1.8318238733
C                 3.2294376834        0.3018244004        1.9960470735
C                 2.5529942476       -0.2604750629        0.9272152185
H                 2.3683618376       -3.0373455742       -3.3697307889
H                 1.8943304978        0.4268656729       -2.3485733909
H                 0.7703670811       -1.7957244224       -0.5836617416
H                 0.2514670487       -1.3674234718       -2.2194595036
H                 0.0062486313        0.5027625337        0.1771700458
H                -0.6948692032        0.7479996001       -1.4313504246
H                -1.8927678038       -1.6003508926       -0.8631306421
H                -4.2210787038       -1.5377126762       -0.4974705019
H                -6.2739904932       -0.2668514028       -0.0371131468
H                -6.1331366639        2.0798008356        0.7165033426
H                -3.9243068907        3.1399818620        1.0068787484
H                -1.8768471924        1.8724423070        0.5561838861
H                -1.6897210899        0.0537703982        2.8672916991
H                 3.3872980935        1.9867950878       -1.4529418177
H                 4.5872452308        2.9773060720        0.4499380487
H                 4.4902735156        1.8978614572        2.6679742623
H                 3.1871190231       -0.1788433549        2.9614560878
H                 1.9938317362       -1.1698465579        1.0762549337



