%chk=calculation/no_transfer_pubchem_sampling_3_b3lyp/89572099_rwf.chk
%rwf=calculation/no_transfer_pubchem_sampling_3_b3lyp/89572099_rwf.rwf
%nprocshared=14
%mem=3GB
#p b3lyp/6-31g(d) 6D 10F nosymm GFInput td=(50-50,nstate=2) SCF=XQC 

Gaussian input prepared by ASE

0 1
O                 3.2430020109       -2.7355068997       -1.5468838288
S                 3.0785372468       -1.4897175193       -2.3008378841
O                 4.2273210480       -0.7363408003       -2.7832794129
O                 2.1322533690       -1.8616380835       -3.6130547412
C                 1.9391658372       -0.3376376322       -1.4188906713
C                 0.6535752129       -1.0765572450       -1.0143738681
C                -0.3745016815       -0.1197985435       -0.3900927260
C                -1.6807963086       -0.8170773982        0.0436741809
C                -2.9106915411        0.0675179436        0.0788175208
C                -4.1545180473       -0.4560359007       -0.2993452000
C                -5.2996688798        0.3390443416       -0.2710738737
C                -5.2180166907        1.6696111573        0.1427318499
C                -3.9854193969        2.1993617673        0.5288522232
C                -2.8392265056        1.4042124635        0.4998922836
S                -1.4801138754       -1.6534358004        1.6849445132
O                -0.1812565618       -2.3125122075        1.7505874880
O                -2.7167084111       -2.3708652167        1.9902542249
O                -1.3688937895       -0.3718914152        2.7148599133
C                 2.7096829007        0.3206182130       -0.2915380461
C                 3.2510280044        1.5992734799       -0.4797142300
C                 3.9721553636        2.2223554960        0.5377646287
C                 4.1649830136        1.5697582023        1.7564635689
C                 3.6345569077        0.2932577259        1.9502818926
C                 2.9133166629       -0.3321985411        0.9332468638
H                 2.0802204651       -2.8358679343       -3.6371131424
H                 1.7170166639        0.4071236028       -2.1917009710
H                 0.8894740343       -1.8842706259       -0.3190348373
H                 0.2199073640       -1.5337226905       -1.9110818074
H                 0.0681521426        0.4114402247        0.4585530337
H                -0.6507311504        0.6445496813       -1.1267862988
H                -1.8792838195       -1.6754292040       -0.6094966399
H                -4.2254102206       -1.4943902767       -0.6115083532
H                -6.2548299307       -0.0820943166       -0.5717818829
H                -6.1092137230        2.2906663051        0.1634099331
H                -3.9133370940        3.2343102390        0.8517679959
H                -1.8866269699        1.8281050846        0.8030010226
H                -2.2746716030       -0.1525756808        3.0047950816
H                 3.1124806769        2.1051741336       -1.4318707112
H                 4.3846658171        3.2145341896        0.3767621418
H                 4.7263564904        2.0534335249        2.5512569435
H                 3.7809541426       -0.2213989881        2.8956236489
H                 2.5051128254       -1.3233818554        1.1019171737



