%chk=calculation/no_transfer_pubchem_sampling_3_b3lyp/91527732_rwf.chk
%rwf=calculation/no_transfer_pubchem_sampling_3_b3lyp/91527732_rwf.rwf
%nprocshared=14
%mem=3GB
#p b3lyp/6-31g(d) 6D 10F nosymm GFInput td=(50-50,nstate=2) SCF=XQC 

Gaussian input prepared by ASE

0 1
C                -5.4976187708       -0.4044099140        1.1942881155
C                -4.8546271598        0.2438512415       -0.0063157385
N                -5.6079357759        0.3707938310       -1.1093695121
C                -5.0802396955        0.9666663468       -2.1854045526
C                -3.7862402923        1.4821645006       -2.2232886733
C                -2.9949073209        1.3561917840       -1.0829320105
C                -3.5283885995        0.7203732519        0.0374645448
O                -2.7934438362        0.6354540494        1.1986936560
C                -2.0626519810       -0.6130344414        1.4271726641
C                -1.5713813797       -0.5364438037        2.8812249829
C                -0.2671890344        0.2124401624        3.0634919896
N                 0.6560890133        0.3012328570        2.1719928685
C                 0.3482218870       -0.2798218478        0.9540027853
C                -0.8811896111       -0.7609442674        0.5215442645
C                -0.6984295313       -1.2287715051       -0.8045376926
C                 0.6322914373       -1.0241580954       -1.1259317127
N                 1.2714786457       -0.4368907818       -0.0558158095
C                 2.6876291074       -0.0617937218        0.0292619881
C                 3.6101002125       -1.2913219799       -0.0512861049
C                 5.0869981873       -0.8817404891        0.0673611105
C                 5.4678505997        0.1728867484       -0.9828726224
C                 4.5384685038        1.3937946427       -0.9088123175
C                 3.0606640249        0.9888055339       -1.0317309432
H                -6.5831185216       -0.3849846668        1.0738951791
H                -5.2177110987        0.1102599078        2.1188701996
H                -5.1925937165       -1.4542889646        1.2995228564
H                -5.7324321774        1.0442355846       -3.0540282175
H                -3.4099753292        1.9715522018       -3.1171088221
H                -1.9816451292        1.7411864848       -1.0390661271
H                -2.7726661648       -1.4408312695        1.3156837262
H                -2.3554667352       -0.1025256220        3.5099274909
H                -1.4056234595       -1.5644725354        3.2428289658
H                -0.0710499019        0.6646594554        4.0368070422
H                -1.4438063714       -1.6660380447       -1.4554634731
H                 1.1715380839       -1.2602619998       -2.0314703604
H                 2.7938851618        0.3909334284        1.0204317842
H                 3.3391643478       -2.0021901026        0.7383493276
H                 3.4481177979       -1.8042444146       -1.0099971924
H                 5.2689736159       -0.4743451415        1.0726023539
H                 5.7268153607       -1.7675455190       -0.0293430774
H                 5.4005992621       -0.2736933424       -1.9860606222
H                 6.5118024673        0.4822703178       -0.8481801462
H                 4.6927863739        1.9095041434        0.0502094736
H                 4.7916665948        2.1163885227       -1.6943529979
H                 2.4076089267        1.8627618192       -0.9234554322
H                 2.8775809821        0.5763466540       -2.0340802109



