%chk=./calculation/no_transfer_pubchem_sampling_3_b3lyp/91913642.chk
%nprocshared=7
%mem=6GB
#p b3lyp/6-31g(d) opt SCF=XQC 

Gaussian input prepared by ASE

0 1
C                -3.6089967867        2.8021806297        1.2099999890
C                -2.9537095478        2.4817022590       -0.0812929352
N                -2.8190176730        3.3630874854       -1.0361626027
O                -2.1617982453        2.7597445389       -2.0602120792
C                -1.8865366350        1.4892779208       -1.7286225051
C                -1.1469859776        0.6372677501       -2.6895764100
C                -2.3831498387        1.2400488009       -0.4753581246
C                -2.2721132707       -0.0244466463        0.3100872232
C                -0.9109245695       -0.0442883181        0.9813273461
O                -0.3473809115        0.9685130001        1.3454592356
N                -0.2743517702       -1.2479666794        1.0912007653
C                -0.7134745815       -2.5625993714        0.9528727923
C                -1.9999273488       -3.0760751043        0.9752147517
C                -2.1645398577       -4.4498427540        0.8544779853
C                -1.0792260133       -5.2978311994        0.7311758349
C                 0.2119680572       -4.7852104301        0.7504264346
C                 0.3841739650       -3.4253729977        0.8715076690
C                 1.6610981599       -2.6429086934        0.9456931812
C                 1.1810175438       -1.2226649160        1.2990557491
C                 1.7749136819       -0.1812969249        0.4176202829
N                 1.5773546017       -0.0546337950       -0.8530954212
N                 2.2820063627        1.0232744197       -1.2555163834
C                 2.8799086219        1.4967599665       -0.2084082534
C                 3.7487870079        2.6605449249       -0.1305306026
C                 3.4050027370        3.8625049642       -0.9769926982
C                 4.5771621799        3.0217414598       -1.3383138566
O                 2.6075798517        0.7614434080        0.8947506456
H                -3.9306625960        3.8389404406        1.2067783339
H                -4.4725561461        2.1569800008        1.3691401186
H                -2.9020604253        2.6437257134        2.0228421781
H                -1.0344187308        1.1677679818       -3.6304992095
H                -0.1595892441        0.3982039578       -2.2936713493
H                -1.6817626203       -0.2960781919       -2.8589240134
H                -2.3660261085       -0.8823054284       -0.3560497884
H                -3.0545049160       -0.0554050347        1.0715699098
H                -2.8646743224       -2.4487983447        1.1086856496
H                -3.1637986559       -4.8581843763        0.8669496342
H                -1.2335544515       -6.3615508826        0.6378039391
H                 1.0668356360       -5.4405744832        0.6811853438
H                 2.1671903045       -2.6472801743       -0.0228649012
H                 2.3465699554       -3.0378291076        1.6950862656
H                 1.4040160807       -0.9545798789        2.3392133358
H                 4.1604832213        2.8211544469        0.8566955688
H                 3.5723935138        4.8361505959       -0.5433052953
H                 2.5200316697        3.7866455175       -1.5881164122
H                 4.4865912750        2.3752069656       -2.1965918918
H                 5.5706578171        3.4048575841       -1.1627114299



