%chk=calculation/no_transfer_pubchem_sampling_3_b3lyp/91913642_rwf.chk
%rwf=calculation/no_transfer_pubchem_sampling_3_b3lyp/91913642_rwf.rwf
%nprocshared=14
%mem=3GB
#p b3lyp/6-31g(d) 6D 10F nosymm GFInput td=(50-50,nstate=2) SCF=XQC 

Gaussian input prepared by ASE

0 1
C                -3.5113474171        2.8319312700        1.3036381196
C                -3.1053656602        2.4667821449       -0.0897773517
N                -3.1609881773        3.3589499273       -1.0528079090
O                -2.6859600603        2.7020050116       -2.1995451466
C                -2.3604620670        1.4314483346       -1.8844817311
C                -1.7747262504        0.5903578644       -2.9683844112
C                -2.6148412147        1.2087722173       -0.5610135414
C                -2.3760818312       -0.0533817117        0.2132773235
C                -0.9838609616       -0.0491637559        0.8554399490
O                -0.4609561459        0.9859344138        1.2487784631
N                -0.2701757935       -1.2335674392        0.8908621735
C                -0.6922971995       -2.5842188521        0.8801227189
C                -1.9824610298       -3.1192058611        0.9181270626
C                -2.1247628678       -4.5116440945        0.9323579648
C                -1.0145072758       -5.3551207860        0.9294542891
C                 0.2741129118       -4.8077735405        0.9231471235
C                 0.4283217007       -3.4292872274        0.9046636055
C                 1.6930766030       -2.6071960660        0.8909352210
C                 1.1901096192       -1.1590915297        1.1595621689
C                 1.8565513902       -0.1384253997        0.2868782077
N                 1.8259737625       -0.0402589402       -1.0019724099
N                 2.6276387294        1.0582221602       -1.3312760512
C                 3.0848759126        1.5255691944       -0.2098303153
C                 3.9667773757        2.6737373730        0.0250017879
C                 3.7846157252        3.9259362196       -0.8209413961
C                 4.9817267905        3.0556286492       -1.0400004589
O                 2.6440385068        0.8095264144        0.8662484588
H                -3.8359673649        3.8747652627        1.3397685571
H                -4.3355874408        2.2001420640        1.6578034799
H                -2.6659272778        2.6962654424        1.9866781688
H                -2.0168963505        1.0116814748       -3.9476920280
H                -0.6831701034        0.5336730587       -2.8732931802
H                -2.1633102676       -0.4329221450       -2.9230702732
H                -2.4837698296       -0.9214384087       -0.4431275350
H                -3.1260563664       -0.1599980680        1.0090530603
H                -2.8643008917       -2.4934698122        0.9610139676
H                -3.1250810662       -4.9346923041        0.9604240329
H                -1.1478063789       -6.4326331842        0.9468121660
H                 1.1472689813       -5.4552000577        0.9394162803
H                 2.1841640874       -2.6566879445       -0.0877356898
H                 2.4217696919       -2.9200125256        1.6451651247
H                 1.3532791050       -0.8648656741        2.2015988802
H                 4.2455379865        2.8067893996        1.0651138152
H                 3.9124851090        4.8809948335       -0.3197580722
H                 2.9908512495        3.8955212297       -1.5606968261
H                 5.0010769151        2.4349545399       -1.9304534256
H                 5.9524161367        3.4006678276       -0.6954804181



