%chk=calculation/no_transfer_pubchem_sampling_3_b3lyp/92435885_rwf.chk
%rwf=calculation/no_transfer_pubchem_sampling_3_b3lyp/92435885_rwf.rwf
%nprocshared=14
%mem=3GB
#p b3lyp/6-31g(d) 6D 10F nosymm GFInput td=(50-50,nstate=2) SCF=XQC 

Gaussian input prepared by ASE

0 1
C                -2.0753317667        1.0604176027       -0.9545546219
C                -2.2259672442       -0.2971510298       -0.3418823938
C                -1.3601482171       -1.3825010586       -0.3244121781
C                 0.0501533102       -1.4663630453       -0.8704687238
C                 0.1869769051       -2.5537575704       -1.9449485645
N                 1.0908934743       -1.6994803631        0.1528444021
C                 1.1508393594       -0.7098026142        1.2308954859
C                 1.6561848596        0.6187417310        0.7655033458
C                 1.2615563797        1.9027939538        1.0156289760
C                 2.2124415856        2.7606752205        0.3772886430
C                 3.1153528174        1.9403129223       -0.2360706608
S                 4.4631780477        2.2849626687       -1.3117533414
C                 5.8432883986        1.6772683916       -0.3783028449
N                 6.6692019907        2.4183377018        0.3314088030
N                 7.6329255375        1.5822414624        0.8458856257
C                 7.3539279650        0.3683661614        0.4252769599
N                 6.2391658988        0.3570358488       -0.3577985035
C                 5.6223983613       -0.7906808798       -1.0149183322
O                 2.7808998748        0.6265542438       -0.0126529264
C                -2.0919975390       -2.4059346491        0.3319602865
N                -3.3033815100       -2.0138762533        0.7008786096
N                -3.3752578282       -0.7138780726        0.2917513224
C                -4.5867880998       -0.0078676538        0.4975355756
C                -5.8061658763       -0.5743943933        0.1086295370
C                -7.0101812524        0.0867361007        0.3348065089
C                -6.9805125386        1.3332161985        0.9525268650
F                -8.1357074440        1.9890229371        1.1651541231
C                -5.7934070952        1.9276756537        1.3634741516
C                -4.6116352924        1.2325362022        1.1430518404
F                -3.4574652756        1.7772594260        1.5761234386
H                -1.2844536127        1.0466650206       -1.7083589439
H                -1.8175131414        1.8230679767       -0.2132832847
H                -3.0016954067        1.3773612435       -1.4467497688
H                 0.2967841127       -0.5033152529       -1.3329898881
H                 1.2086494056       -2.5696921759       -2.3367128239
H                -0.0366749711       -3.5459961892       -1.5325589164
H                -0.5109223472       -2.3753950227       -2.7691096140
H                 0.9431165735       -2.6174503178        0.5699683461
H                 0.1842694540       -0.5303908937        1.7317894257
H                 1.8352334893       -1.1115332410        1.9908007858
H                 0.4050997464        2.1997197168        1.6057118286
H                 2.2346845278        3.8410180534        0.3755678147
H                 7.9191826670       -0.5241382812        0.6579515176
H                 4.5958966486       -0.9234517252       -0.6676390224
H                 5.6178701335       -0.6462733548       -2.0985869669
H                 6.2103504517       -1.6787666992       -0.7746597405
H                -1.7808165305       -3.4204824942        0.5513079776
H                -5.7894199645       -1.5500281441       -0.3636961591
H                -7.9593372284       -0.3442003011        0.0367875190
H                -5.7857427939        2.8897862385        1.8615975052



