%chk=./calculation/no_transfer_pubchem_sampling_3_b3lyp/92607171.chk
%nprocshared=7
%mem=6GB
#p b3lyp/6-31g(d) opt SCF=XQC 

Gaussian input prepared by ASE

0 1
C                 8.4512332632        0.5106380340        1.7481096575
O                 7.2265626099        0.5749656409        2.4376232538
C                 6.0799787799        0.3079549800        1.7571146987
C                 6.0081018165       -0.0219128214        0.4069195378
C                 4.7807699905       -0.2729346939       -0.1751023096
C                 3.5999812252       -0.1944838235        0.5570735024
C                 2.3189759263       -0.4617157529       -0.1048853723
C                 1.1087004355        0.0507754911        0.3660542273
C                -0.0352531524       -0.2678920901       -0.3561104854
C                -1.3950984753        0.2205237977        0.0568957104
C                -1.4684018235        1.7514608821        0.2375846319
C                -1.8974180033        1.9592805143        1.6994276364
N                -2.5182214556        0.7196767821        2.1160253042
S                -4.1710689329        0.6811525406        1.9504963620
O                -4.5889357998       -0.6334168405        2.3277014073
O                -4.6743680179        1.8030559251        2.6808115506
N                -4.4441943433        0.9216641806        0.2939760324
C                -5.2704776838        2.0741231025       -0.0375503199
C                -6.6578827994        1.5384774952       -0.4526236315
C                -6.5473990875        0.0223475060       -0.2643991457
C                -5.0425705533       -0.2192551167       -0.3765102660
C                -1.8070950991       -0.3402985277        1.4376546307
N                 0.0082175900       -1.0238296317       -1.4400191664
C                 1.2135131049       -1.4719242557       -1.8270958811
N                 1.2637917944       -2.2465435391       -2.9267892044
C                 0.0825938544       -2.5578417869       -3.6861099673
C                 2.5080800203       -2.7710390007       -3.4225290078
N                 2.3646505360       -1.2114000432       -1.2011118743
C                 3.6817791951        0.1308334328        1.9116126520
C                 4.9003710317        0.3753630993        2.5023629436
H                 8.6372578008       -0.4926811049        1.3516077531
H                 9.2164351157        0.7538708649        2.4836119681
H                 8.4915846530        1.2382719407        0.9310624409
H                 6.8991121584       -0.0859989914       -0.1979195444
H                 4.7205365571       -0.5291427904       -1.2213268028
H                 1.0608627201        0.6843335838        1.2345968854
H                -2.1079385663       -0.1048173837       -0.7017282016
H                -0.5089535276        2.2265690476        0.0358838168
H                -2.2092530445        2.1707423939       -0.4396773133
H                -2.6109496526        2.7689027391        1.8369111405
H                -1.0306047010        2.1370747191        2.3427743969
H                -4.7948584229        2.6170920017       -0.8603247115
H                -5.3178037339        2.7226078498        0.8354115570
H                -7.4492221451        1.9660942893        0.1586537328
H                -6.8582472239        1.7817113318       -1.4964017081
H                -6.8693114133       -0.2634298273        0.7372569318
H                -7.1198357379       -0.5389571151       -0.9999349458
H                -4.7206653244       -1.1369797328        0.1083474507
H                -4.7174220778       -0.2138085197       -1.4220324647
H                -2.4499523894       -1.2152556298        1.3780437372
H                -0.9211011912       -0.5932133053        2.0284248099
H                 0.1687655544       -2.1626910255       -4.7026302779
H                -0.7738220348       -2.1084595359       -3.1915731834
H                -0.0533487196       -3.6412294969       -3.7440752695
H                 2.7449195288       -2.3393760217       -4.3997741200
H                 2.4396495001       -3.8567608369       -3.5287156063
H                 3.2939086066       -2.5224678675       -2.7148429197
H                 2.7888752855        0.1698396997        2.5166936735
H                 4.9724684792        0.6203542430        3.5503746672



