%chk=calculation/no_transfer_pubchem_sampling_3_b3lyp/92607171_rwf.chk
%rwf=calculation/no_transfer_pubchem_sampling_3_b3lyp/92607171_rwf.rwf
%nprocshared=14
%mem=3GB
#p b3lyp/6-31g(d) 6D 10F nosymm GFInput td=(50-50,nstate=2) SCF=XQC 

Gaussian input prepared by ASE

0 1
C                 8.2271597283        0.1791191131        2.8065763990
O                 6.8692463261        0.2813950421        3.2075032507
C                 5.9006607155        0.0736765943        2.2723304428
C                 6.1411549850       -0.2297006259        0.9258306760
C                 5.0665157641       -0.4237073662        0.0602706833
C                 3.7398140561       -0.3137567747        0.4979665662
C                 2.6222002966       -0.5145990895       -0.4555840744
C                 1.3234795185       -0.0536088165       -0.1942057863
C                 0.3495458406       -0.2936599936       -1.1666393717
C                -1.0817702804        0.1738133693       -1.0048570495
C                -1.2643696730        1.7038510752       -0.8807235026
C                -2.6893532503        1.8625525244       -0.3258847926
N                -2.9622537236        0.5659049498        0.3526060250
S                -3.7789400526        0.6054663303        1.8118565509
O                -3.7336234877       -0.7708199307        2.3194671215
O                -3.3422176514        1.7034251371        2.6828576526
N                -5.2923427544        1.0520369098        1.2606569353
C                -6.1681222498        1.7863170209        2.2089033698
C                -7.5366313030        1.6708100752        1.5323599612
C                -7.5208973979        0.2391957771        0.9709827080
C                -6.0721901619        0.0495217933        0.4829508819
C                -1.7912044100       -0.3383737448        0.2612058784
N                 0.6263670594       -0.9346383135       -2.3053837545
C                 1.9063263009       -1.3390307520       -2.4776063970
N                 2.1975256312       -2.0211035274       -3.6319593119
C                 1.2311017670       -2.1393263030       -4.7100352867
C                 3.5575162165       -2.4230439116       -3.9445069638
N                 2.9120339853       -1.1465210630       -1.6033515236
C                 3.5200403378       -0.0134394552        1.8557474141
C                 4.5782838511        0.1759564752        2.7311095507
H                 8.4617715324       -0.8251110626        2.4301463285
H                 8.8185236259        0.3760455886        3.7025206646
H                 8.4772490282        0.9206720631        2.0365979064
H                 7.1524903648       -0.3148465851        0.5447323760
H                 5.2485467100       -0.6605274279       -0.9820966724
H                 1.0888528757        0.4984329383        0.7070763983
H                -1.6314632961       -0.1809239565       -1.8827335042
H                -0.5353116177        2.1089915727       -0.1700472120
H                -1.1239579295        2.2212280406       -1.8343676496
H                -3.4273759858        2.0094684580       -1.1220518016
H                -2.7682330360        2.6976245997        0.3758929760
H                -5.8138552042        2.8124274621        2.3234636925
H                -6.1843263713        1.3151904748        3.2014205345
H                -8.3585849617        1.8515614301        2.2317012539
H                -7.6151346623        2.4015831957        0.7186010952
H                -7.7405680068       -0.4756752214        1.7724123781
H                -8.2513544037        0.0794491943        0.1721563921
H                -5.7028704557       -0.9635127739        0.6661001407
H                -5.9651551724        0.2677051031       -0.5852901716
H                -2.1216873297       -1.3754711884        0.1793581910
H                -1.1356860685       -0.2562782819        1.1382118288
H                 1.4752208446       -1.4599693682       -5.5414186632
H                 0.2394540478       -1.8959882272       -4.3347647931
H                 1.2354280900       -3.1655432887       -5.0979011013
H                 4.0642631673       -1.6853596961       -4.5862958066
H                 3.5336615621       -3.3798641205       -4.4788017552
H                 4.1283039037       -2.5339833195       -3.0244753012
H                 2.5083747368        0.0479705332        2.2446410959
H                 4.4083700282        0.3969923434        3.7800719267



