%chk=./calculation/no_transfer_pubchem_sampling_3_b3lyp/94820257.chk
%nprocshared=7
%mem=6GB
#p b3lyp/6-31g(d) opt SCF=XQC 

Gaussian input prepared by ASE

0 1
O                -0.4475783501       -1.5245833274       -1.9341939316
C                -0.6245362713       -0.6650511700       -1.0897064616
C                 0.5244106528        0.2376403579       -0.6319282689
S                 0.9842285795       -0.2945414363        1.0692116018
C                 2.3168190770       -1.3402777580        0.7211976334
N                 2.7925007251       -1.3904318979       -0.5185594761
C                 3.7840106162       -2.2006320299       -0.8054202132
C                 4.3919550057       -3.0394537828        0.1285783507
C                 3.9389673252       -2.9873353117        1.4297961044
C                 2.8929999649       -2.1215698159        1.7436731003
N                 2.4080729070       -2.0405420824        3.0698421359
O                 1.5304771066       -1.2158547067        3.2892585789
O                 2.8758466164       -2.7841174884        3.9099927780
C                 0.2164970478        1.6997327027       -0.7572631093
C                -0.3794958186        2.1410627238       -1.9361473002
C                -0.6730449798        3.4796666684       -2.1152905847
C                -0.3718778382        4.3968168190       -1.1214813094
C                 0.2282641447        3.9660640021        0.0483285753
C                 0.5217539068        2.6253589331        0.2305501752
N                -1.8177317248       -0.4718798312       -0.5094042779
C                -2.1839722032        0.4770379313        0.5237936399
C                -3.5130604587       -0.0614900576        1.0493389096
C                -4.1415373995       -0.6719920017       -0.2012438289
C                -2.9440873583       -1.3118483417       -0.8932243006
H                 1.3902868149       -0.0236605950       -1.2495189380
H                 4.1107995827       -2.1764745225       -1.8360485132
H                 5.1944259077       -3.6970972333       -0.1604634392
H                 4.3667273015       -3.5888036084        2.2183240524
H                -0.6091263430        1.4256861204       -2.7127448652
H                -1.1368782535        3.8084412360       -3.0335233477
H                -0.6020164213        5.4424602063       -1.2608701171
H                 0.4705241286        4.6751435525        0.8258388012
H                 0.9874302290        2.2992062459        1.1486913840
H                -2.3165916339        1.4760286959        0.0903105899
H                -1.4231308840        0.5338019612        1.3038998494
H                -4.1243690371        0.7191390112        1.4961836015
H                -3.3317613724       -0.8364971072        1.7943240386
H                -4.9206195185       -1.3957654973        0.0260008013
H                -4.5644631081        0.1139917256       -0.8279838651
H                -3.0295307062       -1.3427561424       -1.9815033985
H                -2.7715879597       -2.3346221475       -0.5406151552



