%chk=calculation/no_transfer_pubchem_sampling_3_b3lyp/96454525_rwf.chk
%rwf=calculation/no_transfer_pubchem_sampling_3_b3lyp/96454525_rwf.rwf
%nprocshared=14
%mem=3GB
#p b3lyp/6-31g(d) 6D 10F nosymm GFInput td=(50-50,nstate=2) SCF=XQC 

Gaussian input prepared by ASE

0 1
C                -3.4399782174       -2.1355241143        0.1660175467
C                -3.6858132397       -0.8342909310        0.9374814951
C                -2.4723974479       -0.4114235054        1.8173260490
C                -1.7663093658        0.6143317787        0.9564291339
C                -0.5148465450        1.1879730503        1.0677711733
C                -0.1407865220        2.1638287269        0.1247615689
S                 1.4764426131        2.8968869920        0.2142819162
O                 1.4347903097        4.2289657207       -0.3902990240
O                 2.0075490923        2.6567198919        1.5553128472
N                 2.4831875411        2.0377370864       -0.8778754726
C                 2.7049290720        0.6493297011       -0.8736440720
C                 2.8902387022       -0.0157363316       -2.0984357968
C                 3.1579307708       -1.3824044232       -2.1342058971
C                 3.2199143813       -2.1261062058       -0.9575624179
C                 3.0221851700       -1.4493572954        0.2432545309
N                 3.0665383098       -2.2173471646        1.5022141308
O                 3.3575169838       -3.4112879040        1.4320711536
O                 2.8000148495       -1.6237345204        2.5463302743
C                 2.7858267046       -0.0808879629        0.3197485629
C                -1.0117390304        2.5594324267       -0.8977965862
C                -2.2750184161        1.9828709976       -1.0088292349
C                -2.6446023516        1.0053469178       -0.0761311762
N                -3.8447789630        0.3287677339        0.0329472987
H                -2.5192889313       -2.0708576742       -0.4255286754
H                -4.2715141411       -2.3547433732       -0.5149087507
H                -3.3448278128       -2.9806298897        0.8574397795
H                -4.5908621313       -0.9384599734        1.5452876107
H                -1.8437099476       -1.2673051645        2.0839934311
H                -2.8167263575        0.0451469939        2.7542976428
H                 0.1660401293        0.9133453194        1.8663679729
H                 2.4487707111        2.4777540806       -1.7917613704
H                 2.8283437046        0.5470866205       -3.0267833834
H                 3.3058752319       -1.8732214766       -3.0914062267
H                 3.4115509402       -3.1910496658       -0.9548950933
H                 2.6862243252        0.4014981068        1.2825091925
H                -0.7049510873        3.3349040435       -1.5923168043
H                -2.9562736059        2.2958600489       -1.7947928444
H                -4.4094474289        0.2041173384       -0.7986694849



