%chk=./calculation/no_transfer_pubchem_sampling_3_b3lyp/97948996.chk
%nprocshared=7
%mem=6GB
#p b3lyp/6-31g(d) opt SCF=XQC 

Gaussian input prepared by ASE

0 1
C                 9.3197540388        0.6662272048       -3.1689628088
C                 9.2801304143        0.6925566803       -1.6473494642
O                 7.9814637493        0.3735740227       -1.1527023836
C                 7.0880006946        1.3737011764       -1.1088879120
O                 7.3398395525        2.5075798431       -1.4425596350
C                 5.7720862122        0.9328965605       -0.5958212393
C                 4.7582257960        1.8824730569       -0.4685829538
C                 3.5186262017        1.5169088684        0.0050447354
C                 3.2657488258        0.1898280291        0.3609047205
N                 1.9891036633       -0.1069028122        0.8376455030
C                 1.4782701339       -1.3086730063        1.1971145626
O                 2.0578994692       -2.3705432833        1.1590950089
C                 0.0251724972       -1.2149964719        1.6773524613
C                -0.9171750625       -0.6495076947        0.5967444465
C                -1.1024281993        0.8552485357        0.7610705062
O                -0.2213687212        1.6877705073        0.7851708782
N                -2.4343555308        1.0721709782        0.9096851480
C                -3.0171960898        2.3502023803        1.1195878336
C                -4.0679940844        2.7773609915        0.3248686441
C                -4.6405956741        4.0182310983        0.5380382391
C                -4.1548203483        4.8488671279        1.5437262875
O                -4.6395217937        6.0797626145        1.8376813078
C                -5.7277856763        6.5758075044        1.0934391852
C                -3.0832171586        4.4134133102        2.3285319910
C                -2.5212898257        3.1740485718        2.1234243956
C                -3.1511641253       -0.1236608257        0.8593241603
S                -4.7723774701       -0.2679990203        0.9961468629
N                -2.2711211637       -1.1332545501        0.7112222810
C                -2.6677766350       -2.4853751707        0.4154494527
C                -2.9619898458       -2.6844735683       -1.0798445123
C                -3.4546437820       -4.0836389845       -1.3148525002
C                -2.5734852080       -5.0980592167       -1.6633802259
C                -3.0295218826       -6.3919335396       -1.8450975494
C                -4.3715364874       -6.6849438218       -1.6746828161
C                -5.2556861449       -5.6794307994       -1.3213813630
C                -4.7990213277       -4.3864292400       -1.1405832994
C                 4.2757138973       -0.7624263445        0.2335715618
C                 5.5169619191       -0.3892656286       -0.2407806214
H                10.3341347036        0.8511309125       -3.5106975718
H                 8.6665468739        1.4380007416       -3.5686070451
H                 8.9898865660       -0.3023152814       -3.5374249283
H                 9.5662729137        1.6840423283       -1.2803751353
H                 9.9399783338       -0.0671806872       -1.2226776860
H                 4.9682086299        2.9037475919       -0.7475374505
H                 2.7314883273        2.2504540818        0.1047122504
H                 1.3654577458        0.7009158097        0.8818301669
H                -0.2906090406       -2.2242541096        1.9443488332
H                -0.0184704679       -0.5956408427        2.5760384908
H                -0.5079440750       -0.8759482954       -0.3982947110
H                -4.4481243551        2.1419600499       -0.4591546419
H                -5.4620495622        4.3234544322       -0.0895457023
H                -6.6092462421        5.9355590014        1.1966901168
H                -5.4745343133        6.6814733470        0.0339256620
H                -5.9450998061        7.5576077954        1.5106100523
H                -2.7137286082        5.0683882189        3.1008080858
H                -1.6971194370        2.8436735959        2.7356439058
H                -1.8740566366       -3.1639664222        0.7327529275
H                -3.5717698164       -2.6994222654        0.9914424054
H                -3.7246474923       -1.9632503916       -1.3799556606
H                -2.0546902770       -2.4996364999       -1.6588310969
H                -1.5247052988       -4.8736819901       -1.7984716181
H                -2.3355828358       -7.1724898848       -2.1202068228
H                -4.7276282703       -7.6943339470       -1.8175573793
H                -6.3037354376       -5.9028303839       -1.1869657140
H                -5.4892628266       -3.6020187273       -0.8653341114
H                 4.0806955276       -1.7857022373        0.5075260140
H                 6.2994103491       -1.1248460241       -0.3384755240



