%chk=calculation/no_transfer_pubchem_sampling_0_b3lyp/101086905_rwf.chk
%rwf=calculation/no_transfer_pubchem_sampling_0_b3lyp/101086905_rwf.rwf
%nprocshared=14
%mem=3GB
#p b3lyp/6-31g(d) 6D 10F nosymm GFInput td=(50-50,nstate=2) SCF=XQC 

Gaussian input prepared by ASE

0 1
C                -1.8689428691        0.1083418824       -1.3890759123
N                -1.2669329852       -0.3630537328       -0.1507368512
C                -2.0511021062       -0.2780058231        1.0723533532
N                 0.1004382841       -0.1187649335       -0.0111772641
C                 0.9236734156       -1.3160273181       -0.1382277002
O                 0.4152522382       -2.3964427569       -0.3457284903
C                 2.3534441698       -1.0831699168        0.0039931747
C                 2.8213406332        0.1591702553        0.2337417978
N                 1.9659821261        1.2250072380        0.3378933016
C                 0.5908073608        1.1535445213        0.2249158412
S                -0.3029222099        2.5584663014        0.3795325733
H                -2.8163989105       -0.4263005964       -1.5169450862
H                -1.2173726659       -0.1621117722       -2.2251387949
H                -2.0618180651        1.1893869566       -1.4137315490
H                -2.9948101849       -0.8046505345        0.8936770063
H                -1.5205013985       -0.8050203092        1.8707318220
H                -2.2698246512        0.7481727014        1.3973001458
H                 3.0080123736       -1.9399040781       -0.0822055310
H                 3.8742655251        0.3931108509        0.3483513209
H                 2.3174089200        2.1582510644        0.5104778426



