%chk=./calculation/no_transfer_pubchem_sampling_0_b3lyp/101330195.chk
%nprocshared=7
%mem=6GB
#p b3lyp/6-31g(d) opt SCF=XQC 

Gaussian input prepared by ASE

0 1
C                 4.9132385301        3.4111187643        0.3286375476
C                 5.6814354519        3.2569215417       -0.7333556700
C                 5.4021464323        2.3169429418       -1.8622584429
C                 6.6502181627        1.5469898162       -2.3013529185
C                 7.2205228158        0.6231976292       -1.2233691219
C                 6.2842400080       -0.5355142306       -0.8478648748
C                 5.6195197703       -0.3364693261        0.5140060095
C                 4.5649138206       -1.3979184694        0.8306302441
C                 3.2800646200       -1.2275309571        0.0218350625
C                 2.2147509276       -2.2393500275        0.4377613654
C                 0.9660841068       -2.2085603992       -0.4458813220
C                 0.2183138838       -0.8742199417       -0.4771758053
C                -0.3283184788       -0.4584003130        0.8858853762
C                -1.0844896707        0.8699087105        0.8502692891
C                -2.3786403386        0.8105271501        0.0240373126
C                -3.3090739895       -0.2400055894        0.5184577588
N                -3.6365795574       -1.2372223819       -0.2487339266
C                -4.6335138615       -2.0532463786       -0.1259489833
C                -5.8452308739       -1.8222232019        0.7354152234
N                -6.1591890440       -0.4084556447        0.8742687946
C                -6.6447774776       -0.0243930110        2.1892453587
C                -6.3542593583        1.4435408558        2.4927742559
C                -7.0229528647        0.0672610544       -0.1893533624
C                -6.3377988310        0.0660762490       -1.5556378330
O                -6.4333999697       -1.2181274209       -2.1349403595
H                 4.0042810171        2.8459248217        0.4607208365
H                 5.1494359035        4.1138268543        1.1097191536
H                 6.5822158812        3.8486663924       -0.8402868713
H                 4.6061991931        1.6248122008       -1.5854156051
H                 5.0476102516        2.9039412781       -2.7169787709
H                 7.4219363982        2.2660162539       -2.5892008021
H                 6.4078842116        0.9539069056       -3.1867941092
H                 8.1654246630        0.2217963596       -1.5964488169
H                 7.4462856514        1.2118151720       -0.3319932296
H                 6.8470458064       -1.4713213155       -0.8209502322
H                 5.5209274987       -0.6435925108       -1.6191360652
H                 5.1590573032        0.6511368926        0.5571451372
H                 6.3949735627       -0.3670874822        1.2838275870
H                 4.3148009990       -1.3383025366        1.8930940783
H                 4.9826252004       -2.3909315144        0.6472731236
H                 3.4896537045       -1.3530930714       -1.0421857953
H                 2.9030727863       -0.2144143229        0.1732287715
H                 2.6449087166       -3.2430072008        0.3818231518
H                 1.9372680290       -2.0665493080        1.4791254109
H                 1.2580722617       -2.4626251938       -1.4683747734
H                 0.2773738465       -2.9831782838       -0.0996776834
H                 0.8737790077       -0.0904422564       -0.8621270980
H                -0.6152828013       -0.9816644515       -1.1727008675
H                 0.4966551534       -0.3599370017        1.5941359940
H                -0.9979446708       -1.2390659576        1.2533499746
H                -1.3386125453        1.1545996522        1.8745460891
H                -0.4371208930        1.6484329893        0.4392910571
H                -2.1498454683        0.6226079293       -1.0249822429
H                -2.8685063088        1.7887088965        0.0940417223
H                -3.6220183554       -0.1820454218        1.5584824463
H                -4.6026764732       -2.9557823432       -0.7178691253
H                -5.6231774590       -2.2325136948        1.7306596626
H                -6.6909217556       -2.3908318966        0.3201290591
H                -6.1211442791       -0.6312080302        2.9325247820
H                -7.7258462413       -0.2195662704        2.3009576435
H                -5.3047922160        1.6554360405        2.3076616738
H                -6.9524726289        2.1094079188        1.8768646205
H                -6.5792616940        1.6528637472        3.5358188951
H                -7.3096570715        1.0935150131        0.0411710975
H                -7.9395978674       -0.5433184122       -0.2719788023
H                -5.2934888032        0.3685442078       -1.4290663962
H                -6.8414021830        0.7980996680       -2.2061042884
H                -5.7649435462       -1.3044291377       -2.8206683709



