%chk=calculation/no_transfer_pubchem_sampling_0_b3lyp/102319918_rwf.chk
%rwf=calculation/no_transfer_pubchem_sampling_0_b3lyp/102319918_rwf.rwf
%nprocshared=14
%mem=3GB
#p b3lyp/6-31g(d) 6D 10F nosymm GFInput td=(50-50,nstate=2) SCF=XQC 

Gaussian input prepared by ASE

0 1
N                -3.3325736045        0.5312147902        0.4945962814
N                -1.9911162757        0.5743612771        0.5760868458
C                -1.1820577963       -0.1687105930       -0.1020813617
C                 0.2749484402        0.0825347034        0.0584743614
C                 1.2046309753       -0.2251060612       -0.9499293020
C                 2.5617356347        0.0452933423       -0.7825712907
C                 2.9891303694        0.6312251067        0.4013164853
F                 4.3022255075        0.8922538853        0.5701271112
C                 2.0986526399        0.9541685595        1.4201158495
C                 0.7479494105        0.6753778024        1.2426877591
C                -1.5936808910       -1.2565236178       -1.0819422696
F                -1.5326574857       -0.8303439383       -2.3656734900
F                -0.8002662953       -2.3413401913       -0.9872127689
F                -2.8662539123       -1.6995122677       -0.8815232434
H                -3.7840278057       -0.3211968832        0.1822565065
H                -3.7636531673        0.9836024275        1.2886472977
H                 0.8763216022       -0.6659464308       -1.8838244902
H                 3.2831407352       -0.1860228790       -1.5592128315
H                 2.4694917359        1.4064387996        2.3341380279
H                 0.0380581833        0.9182341682        2.0255235222



