%chk=./calculation/no_transfer_pubchem_sampling_0_b3lyp/102319918.chk
%nprocshared=7
%mem=6GB
#p b3lyp/6-31g(d) opt SCF=XQC 

Gaussian input prepared by ASE

0 1
N                -3.2785394670        0.5023532714        0.5694747460
N                -1.9693285368        0.5219284749        0.6021395802
C                -1.1593655541       -0.1856276247       -0.0876476102
C                 0.2759531844        0.0759529939        0.0625119179
C                 1.1898008389       -0.2244557512       -0.9473447394
C                 2.5345420471        0.0490114787       -0.7799688108
C                 2.9600085479        0.6274427306        0.4011188348
F                 4.2711460009        0.8918689850        0.5682415096
C                 2.0742344021        0.9470965862        1.4165730364
C                 0.7352290443        0.6690911525        1.2408923570
C                -1.5560127708       -1.2735833777       -1.0706680641
F                -1.5927421118       -0.8438505744       -2.3498791206
F                -0.7236023340       -2.3258430047       -1.0474187538
F                -2.7828202060       -1.7868453994       -0.8291851612
H                -3.8347121635       -0.1834299692        0.0751235154
H                -3.7186837081        1.0688975372        1.2746924943
H                 0.8641592678       -0.6565076873       -1.8801369961
H                 3.2492931287       -0.1783997690       -1.5546071985
H                 2.4407710761        1.4008914349        2.3236289099
H                 0.0206673140        0.9040105123        2.0124585531



