%chk=./calculation/no_transfer_pubchem_sampling_0_b3lyp/103067416.chk
%nprocshared=7
%mem=6GB
#p b3lyp/6-31g(d) opt SCF=XQC 

Gaussian input prepared by ASE

0 1
C                 0.6772124083        1.1778848698        1.2127125898
C                 0.5676630195        0.1461604051        0.3931411059
C                 1.6452214458       -0.2662338363       -0.5742266599
N                 2.9296051083        0.3066736784       -0.2380279121
C                 3.9881381374       -0.0950577119       -1.1434226733
C                 5.3266168050        0.5150748670       -0.7310613104
C                 5.9156723257       -0.1296471065        0.5188701863
C                -0.6575123569       -0.7290738232        0.3436753791
O                -1.7371051460       -0.1776542353        1.0890307816
C                -2.9627940580       -0.1731870906        0.4979820757
C                -3.2826788327        0.6941885376       -0.5564666411
C                -2.2457191235        1.6004772669       -1.1456599721
C                -4.5875162422        0.7170479626       -1.0317104327
C                -5.5845296898       -0.0672256327       -0.4752268225
C                -5.2837277292       -0.9093766215        0.5757071620
C                -3.9762255121       -0.9756859278        1.0386591860
N                -3.6783043204       -1.9175361731        2.0896600546
O                -2.6132979234       -2.4923839458        2.0507613097
O                -4.5383231325       -2.1047661343        2.9227388038
H                -0.1169552418        1.4331533527        1.8923916098
H                 1.5607014292        1.7898785197        1.2198560628
H                 1.6733494289       -1.3731719429       -0.6256507254
H                 1.3779984333        0.0899360311       -1.5785844440
H                 3.1721149834        0.0386373873        0.7110819112
H                 4.0896684203       -1.1946047014       -1.2105642770
H                 3.7161947071        0.2714855622       -2.1394756873
H                 6.0290274761        0.3950953846       -1.5582247460
H                 5.1803005519        1.5824570571       -0.5606186296
H                 5.2787262723        0.0372551374        1.3843201957
H                 6.0322590672       -1.2023957510        0.3763795307
H                 6.8932584534        0.2945610529        0.7353128166
H                -0.9539957387       -0.8936494498       -0.6994871393
H                -0.4309903382       -1.7105132956        0.7857990525
H                -2.6990268192        2.5400603936       -1.4519365690
H                -1.4562270472        1.8012536705       -0.4255969182
H                -1.7949374249        1.1440118272       -2.0275441169
H                -4.8281114022        1.3842070729       -1.8467055806
H                -6.5918589996       -0.0159068593       -0.8570927952
H                -6.0338923949       -1.5314307976        1.0392012388



