%chk=calculation/no_transfer_pubchem_sampling_0_b3lyp/103067416_rwf.chk
%rwf=calculation/no_transfer_pubchem_sampling_0_b3lyp/103067416_rwf.rwf
%nprocshared=14
%mem=3GB
#p b3lyp/6-31g(d) 6D 10F nosymm GFInput td=(50-50,nstate=2) SCF=XQC 

Gaussian input prepared by ASE

0 1
C                 0.8007229757        1.3400674028        1.1123297466
C                 0.6385988940        0.4126067371        0.1677076351
C                 1.7657560153       -0.0881617662       -0.7142931608
N                 3.0846006935        0.2369833129       -0.1894098096
C                 4.1771888125       -0.2381338915       -1.0359120876
C                 5.5493721225        0.1486947910       -0.4744877069
C                 5.8904690067       -0.5122123349        0.8666177537
C                -0.6848995877       -0.2440847140       -0.1262152650
O                -1.7216769770        0.3371479301        0.6792084249
C                -3.0068242748        0.0201114383        0.3430234850
C                -3.6787655996        0.7969328740       -0.6230633073
C                -2.9555371092        1.9136589950       -1.3370138401
C                -5.0262295383        0.5279496263       -0.8839186893
C                -5.7235377552       -0.4683685123       -0.1987394276
C                -5.0760437222       -1.2131997443        0.7783791152
C                -3.7245910124       -0.9757102606        1.0319736367
N                -3.0908787476       -1.8052130626        2.0660065340
O                -1.8970437954       -2.0794326590        1.9525216200
O                -3.8109190901       -2.2021949822        2.9831143489
H                -0.0305267985        1.6676882382        1.7262480193
H                 1.7736682424        1.7892887297        1.2802457575
H                 1.6294952827       -1.1769313971       -0.8876199424
H                 1.6775283363        0.3740170316       -1.7104246425
H                 3.1679229443       -0.1741076096        0.7387531844
H                 4.1429305316       -1.3350383922       -1.1986432904
H                 4.0520339470        0.2236055499       -2.0245303613
H                 6.3099356494       -0.1291516287       -1.2161513147
H                 5.5887601893        1.2401786151       -0.3706077159
H                 5.2157456385       -0.1858093912        1.6669862952
H                 5.8290974521       -1.6058655696        0.7985860112
H                 6.9080259409       -0.2561467280        1.1819942628
H                -0.9344043857       -0.1263467558       -1.1925017202
H                -0.6387066089       -1.3190394086        0.0860444182
H                -3.6603583129        2.6826871074       -1.6672232167
H                -2.2083151555        2.3749265398       -0.6860904933
H                -2.4297044986        1.5488538961       -2.2291516145
H                -5.5426038249        1.1274167902       -1.6297682207
H                -6.7711969336       -0.6519968114       -0.4158711808
H                -5.5890899470       -1.9756709857        1.3518937588



