%chk=calculation/no_transfer_pubchem_sampling_0_b3lyp/103123554_rwf.chk
%rwf=calculation/no_transfer_pubchem_sampling_0_b3lyp/103123554_rwf.rwf
%nprocshared=14
%mem=3GB
#p b3lyp/6-31g(d) 6D 10F nosymm GFInput td=(50-50,nstate=2) SCF=XQC 

Gaussian input prepared by ASE

0 1
C                -3.5480643272       -1.7074537882        0.7815901223
C                -2.4756247019       -0.6923915954        0.3498108144
C                -3.1187507041        0.5106260675       -0.3757551732
O                -3.0229422546        0.7251757593       -1.5516365412
O                -3.8295685723        1.3402886056        0.4343354450
N                -1.4700814296       -1.3074653173       -0.4974066417
N                -1.7274934660       -2.4585088516       -1.1790849137
N                -0.6497269131       -2.7507272527       -1.8218468358
N                 0.3189852224       -1.8284752848       -1.6076244740
C                -0.1973039449       -0.9192697973       -0.7844835749
C                 0.5175091078        0.2282685997       -0.2757570466
C                 0.0740998949        1.3995192609        0.3784778447
N                 1.0615529366        2.2375559678        0.6953520207
N                 2.1798824544        1.6171923107        0.2379910023
C                 3.4384490837        2.1370549374        0.3540767663
C                 4.4939603608        1.4280303286       -0.1495137467
C                 4.2730912421        0.1740079598       -0.7832855848
C                 3.0022215337       -0.3407296239       -0.8964608032
C                 1.9171791689        0.3960239527       -0.3695111760
H                -3.0819295555       -2.5577013261        1.2846580211
H                -4.2515928663       -1.2354078799        1.4752495059
H                -4.1002650775       -2.0787449499       -0.0831852053
H                -1.9523383785       -0.3215069278        1.2410788961
H                -3.8146812681        1.0301355555        1.3554181110
H                -0.9364430713        1.6997347039        0.6191170054
H                 3.4981385844        3.0982659227        0.8479235714
H                 5.4940831584        1.8372072509       -0.0619727949
H                 5.1177147715       -0.3769129156       -1.1847685769
H                 2.7899380117       -1.2837916722       -1.3853600380



