%chk=./calculation/no_transfer_pubchem_sampling_0_b3lyp/103123554.chk
%nprocshared=7
%mem=6GB
#p b3lyp/6-31g(d) opt SCF=XQC 

Gaussian input prepared by ASE

0 1
C                -3.7980261423       -1.5183840238        0.2870785628
C                -2.4984237740       -0.7202847300        0.4115426802
C                -2.6293689936        0.6091571223       -0.3599038143
O                -2.0450322632        0.8436073836       -1.3717090523
O                -3.4737146077        1.4879848055        0.1930501725
N                -1.4117699454       -1.4779256274       -0.1398518016
N                -1.5849773969       -2.6813496072       -0.7112500358
N                -0.4681237597       -3.0542182574       -1.1670136581
N                 0.4756880254       -2.1571075555       -0.9441172232
C                -0.0961580194       -1.1527625095       -0.3015730883
C                 0.5855267604        0.0215987822        0.1387288774
C                 0.2048533878        1.0605310038        0.9971102010
N                 1.1621768550        1.9632130134        1.1406160641
N                 2.1719138087        1.5500307097        0.3863118802
C                 3.3521601194        2.1887904707        0.2365360068
C                 4.3034465939        1.6431889402       -0.5707352015
C                 4.0574008599        0.4267160848       -1.2415843596
C                 2.8596370096       -0.2146249904       -1.0864803692
C                 1.8946273696        0.3626208097       -0.2532317270
H                -3.6920095343       -2.4715255880        0.7983204293
H                -4.6344207288       -0.9740750668        0.7199988014
H                -4.0054879784       -1.7204909726       -0.7607035448
H                -2.2836325853       -0.5075509409        1.4701027117
H                -3.8903095068        1.1689817688        1.0049891657
H                -0.7116510500        1.2012143554        1.5349961565
H                 3.4655918353        3.1131419856        0.7794699476
H                 5.2480055991        2.1466388608       -0.6960372873
H                 4.8226577027        0.0098242645       -1.8765713854
H                 2.6194193592       -1.1469404913       -1.5706631089



