%chk=./calculation/no_transfer_pubchem_sampling_0_b3lyp/108662373.chk
%nprocshared=7
%mem=6GB
#p b3lyp/6-31g(d) opt SCF=XQC 

Gaussian input prepared by ASE

0 1
C                -3.3406194172       -0.5617937109       -2.7824334269
O                -2.8097234336       -0.0499715245       -1.5795300738
C                -3.5676572447       -0.0831319489       -0.4652967610
C                -4.9406780835       -0.3135026239       -0.4435337621
C                -5.6542428697       -0.2338549917        0.7391759824
C                -4.9936560650        0.0902989460        1.9078485204
F                -5.6881921262        0.1933724285        3.0606771446
C                -3.6297811871        0.3105006118        1.9266288071
C                -2.9070956378        0.1991687155        0.7463122606
C                -1.4476262648        0.3838917417        0.7662378797
O                -0.9643550314        1.5015596633        1.3501660158
C                -0.5898606202       -0.5253529560        0.2536477194
C                -0.9230432843       -1.8477055333       -0.2554435234
O                -2.0030403722       -2.3915564730       -0.3106410393
C                 0.4021278046       -2.4683018107       -0.6923150590
O                 0.5800097136       -3.5534960693       -1.1973262899
N                 1.3671844200       -1.5630018125       -0.4131859169
C                 2.7601619952       -1.7778195869       -0.7358892093
C                 3.6524890728       -1.4110701902        0.3999158723
C                 4.6031186336       -0.4386117498        0.5145046748
C                 5.1156784414       -0.5389986938        1.8318175181
C                 4.4330860794       -1.5582958341        2.4180872750
O                 3.5472799274       -2.0905289759        1.5615698065
C                 0.9022678241       -0.3169784072        0.1601808853
C                 1.2387202848        0.8571528002       -0.7047873463
S                 0.7923920979        0.8312085793       -2.3807841998
C                 1.4646420059        2.3963389014       -2.6080711361
C                 1.9856570926        2.9002592255       -1.4628454963
C                 1.8602936049        2.0212139331       -0.3563424945
C                 2.3420994487        2.3490729164        1.0193393995
H                -2.5162680135       -0.5401585863       -3.4930701731
H                -4.1600560702        0.0599106742       -3.1572312188
H                -3.6797500114       -1.5919887996       -2.6511660165
H                -5.4652637855       -0.5609644145       -1.3514555809
H                -6.7162796622       -0.4188597700        0.7576146220
H                -3.1338363401        0.5181509682        2.8635235930
H                -1.6935966958        2.0633598030        1.6466990667
H                 3.0460498639       -1.1834228629       -1.6118337717
H                 2.8466550194       -2.8421627249       -0.9804772506
H                 4.9034574244        0.2541472133       -0.2448478512
H                 5.8814929143        0.0644653634        2.2738394020
H                 4.4832575299       -1.9850300332        3.3999133809
H                 1.3472174221       -0.1589998810        1.1526687212
H                 1.4315548097        2.8471545982       -3.5798135753
H                 2.4500147062        3.8681697232       -1.3964459107
H                 2.7866360546        3.3403370829        1.0323485912
H                 1.5114079528        2.3274865834        1.7226889978
H                 3.0896720725        1.6283414922        1.3493619470



