%chk=calculation/no_transfer_pubchem_sampling_0_b3lyp/110256895_rwf.chk
%rwf=calculation/no_transfer_pubchem_sampling_0_b3lyp/110256895_rwf.rwf
%nprocshared=14
%mem=3GB
#p b3lyp/6-31g(d) 6D 10F nosymm GFInput td=(50-50,nstate=2) SCF=XQC 

Gaussian input prepared by ASE

0 1
C                 5.1185846001       -0.1146097627        2.0010918697
C                 4.7549125386        0.8271021920        0.8362605271
C                 5.9163092645        0.9550174382       -0.1697808023
C                 5.6794310920        2.0106698885       -1.2580244276
O                 4.6042775430        1.6848782075       -2.1193563852
N                 3.4788980743        0.5043605206        0.1497400944
C                 3.3638101076       -0.8673447558       -0.4065198371
C                 2.3416901128       -1.7385312070        0.3348493828
C                 0.9189303523       -1.1205114417        0.2974519428
C                 0.0838828809       -1.7041186032       -0.8692586136
C                -1.3261082071       -1.1720424877       -0.9483665579
C                -2.3766429018       -1.7321139663       -0.2121260756
N                -3.6299094525       -1.2741171353       -0.2460704290
C                -3.8501357364       -0.2067380628       -1.0178611746
N                -5.1316802182        0.3220800136       -1.1355686624
C                -6.2138807616        0.2270501555       -0.2551044743
C                -7.5014396003        0.5210330556       -0.7468906922
C                -8.5714008822        0.4699803865        0.1351115376
C                -8.3413252485        0.1144808118        1.4671744944
C                -7.0288804844       -0.1607167836        1.8443310258
N                -5.9786816310       -0.0975587148        1.0182610415
C                -2.8041227666        0.3669138981       -1.7715873715
N                -1.5671095994       -0.1123248595       -1.7448894983
C                 1.0163909662        0.4244307037        0.2283791482
C                 2.2901670232        0.9350576144        0.9029886217
H                 5.3616073200       -1.1227163810        1.6455958694
H                 4.3009784494       -0.1972202521        2.7254393349
H                 5.9971673904        0.2642393628        2.5357650659
H                 4.5928834528        1.8282982667        1.2616336556
H                 6.8252791353        1.2155306245        0.3903289344
H                 6.1124010380       -0.0130746474       -0.6499513943
H                 6.5746887387        2.1028468017       -1.8846220312
H                 5.5247783742        2.9944395039       -0.7755462299
H                 3.8807989272        1.4269805642       -1.5067234519
H                 3.0893172909       -0.7980663277       -1.4683297522
H                 4.3460232485       -1.3477573879       -0.3849384207
H                 2.6656407516       -1.8601912813        1.3754796947
H                 2.3351174735       -2.7440907377       -0.1054262990
H                 0.4093603544       -1.3909269770        1.2327713119
H                 0.0530481221       -2.7962622161       -0.7595358727
H                 0.5860280690       -1.4855182208       -1.8193640279
H                -2.2039466609       -2.6033132392        0.4192671229
H                -5.2892167279        0.8913225049       -1.9548020845
H                -7.6491773413        0.7708403362       -1.7944350767
H                -9.5755267056        0.6936027392       -0.2153102048
H                -9.1504326593        0.0538287199        2.1877525786
H                -6.7982525486       -0.4371662577        2.8722329256
H                -2.9871544134        1.2309932964       -2.4115206883
H                 1.0133660843        0.7556769451       -0.8175560321
H                 0.1406294802        0.8848806050        0.6977749182
H                 2.2903704379        2.0317031564        0.9365740947
H                 2.3082548530        0.5887943935        1.9532143746



