%chk=./calculation/no_transfer_pubchem_sampling_0_b3lyp/112165152.chk
%nprocshared=7
%mem=6GB
#p b3lyp/6-31g(d) opt SCF=XQC 

Gaussian input prepared by ASE

0 1
C                -1.1700939600       -5.9559289863       -2.1349459835
C                -0.6708163199       -5.1512156376       -0.9393515675
N                -0.3804092469       -3.7837070968       -1.3243424781
C                -0.5648397167       -2.7038020929       -0.4719580546
N                 0.2341776665       -1.7227041384       -0.3354367444
C                 1.5234382622       -1.6696622523       -0.9682738790
C                 2.2216787730       -0.3688610432       -0.5101872382
N                 1.3365726487        0.6873823395       -1.0016344626
C                 1.2075949950        2.0211762309       -0.4138435565
C                 0.3248749090        2.0822467777        0.8426995274
C                 2.5385515405        2.7252622057       -0.2758821189
C                 3.0889835481        3.1038907095        0.9406110682
C                 4.3112799920        3.7549235191        0.9915085920
C                 4.9994592315        4.0453701891       -0.1716308263
C                 4.4529456844        3.6872899421       -1.3934636413
C                 3.2339827500        3.0389257919       -1.4417147294
C                 3.6021481527       -0.2338392128       -1.1802815045
C                 4.6111997732       -1.2475631385       -0.6401318520
O                 4.7463075202       -1.1715929964        0.7588588505
C                 3.5205486825       -1.4081525497        1.4125390578
C                 2.4406692617       -0.4018469197        1.0137510846
N                -1.7341959616       -2.7252732333        0.2601648160
C                -2.9859506908       -3.0813881632       -0.3968692836
C                -3.8615515971       -1.8393887638       -0.2533385409
C                -3.4709200003       -1.3358989516        1.1365966481
C                -3.8155207512        0.1318522685        1.3807351457
O                -3.1238208116        0.9445012844        0.4566255251
C                -3.6094052402        2.2582979203        0.3475421748
C                -3.3704403258        3.1072033584        1.6118743136
O                -3.4161600754        4.4907441790        1.3669297774
C                -4.7012524207        4.9991502420        1.1058417255
C                -1.9638138370       -1.6087166326        1.1718582281
H                -1.3761108608       -6.9800908996       -1.8355708985
H                -0.4204658768       -5.9684865172       -2.9229468475
H                -2.0809357943       -5.5180200559       -2.5349145227
H                -1.4248962180       -5.1347407697       -0.1528809285
H                 0.2286413511       -5.6349381516       -0.5296198120
H                 0.4703708933       -3.7041670040       -1.8642511299
H                 1.4319929321       -1.6239973128       -2.0643659145
H                 2.1318511679       -2.5480875431       -0.7171445253
H                 0.4010858233        0.2916860074       -1.0272784812
H                 0.6563915913        2.5815467966       -1.1889061093
H                 0.1504033806        3.1215345548        1.1164554447
H                 0.7614964178        1.5613728754        1.6884044756
H                -0.6338555238        1.6175148691        0.6189852866
H                 2.5694426145        2.9031546495        1.8651773660
H                 4.7254612767        4.0369672083        1.9489672006
H                 5.9525865530        4.5518697155       -0.1284978738
H                 4.9782214030        3.9168575900       -2.3095182028
H                 2.8074457162        2.7533317333       -2.3920376009
H                 3.9853923349        0.7650371286       -0.9782023834
H                 3.5013136894       -0.3509153887       -2.2599771578
H                 5.6060019797       -1.0414424559       -1.0432931352
H                 4.3253487934       -2.2714103077       -0.9311264903
H                 3.1815328068       -2.4362397903        1.2101540046
H                 3.7382873042       -1.3240408517        2.4805862956
H                 1.5028683113       -0.6656085404        1.5038129290
H                 2.7728154463        0.5833005403        1.3381610150
H                -3.4508089322       -3.9266957877        0.1278191008
H                -2.8112904629       -3.3614186138       -1.4354802274
H                -4.9235159417       -2.0602332282       -0.3455083576
H                -3.5791269961       -1.0900995988       -0.9928795746
H                -3.9812269840       -1.9327043204        1.8991420640
H                -3.5414154552        0.4035967935        2.4103282934
H                -4.9011352345        0.2750950920        1.2641611964
H                -3.0528453192        2.7062302052       -0.4800792467
H                -4.6814411758        2.2423218743        0.0955965619
H                -4.0955967389        2.8376066625        2.3953636760
H                -2.3594788517        2.9099091418        1.9771814800
H                -5.0908913198        4.6579015732        0.1408172222
H                -4.6008544785        6.0826630266        1.0861605111
H                -5.4074332579        4.7143912808        1.8957258166
H                -1.6106300440       -1.8741913249        2.1716813021
H                -1.4102167564       -0.7350340054        0.8214881039



