%chk=calculation/no_transfer_pubchem_sampling_0_b3lyp/114338881_rwf.chk
%rwf=calculation/no_transfer_pubchem_sampling_0_b3lyp/114338881_rwf.rwf
%nprocshared=14
%mem=3GB
#p b3lyp/6-31g(d) 6D 10F nosymm GFInput td=(50-50,nstate=2) SCF=XQC 

Gaussian input prepared by ASE

0 1
C                 4.1857582794        1.0346354626        0.0776231552
C                 3.0357524037        0.0460255437        0.2840860768
O                 3.2850572445       -1.1714605877       -0.4276022979
C                 1.6964567295        0.6130041977       -0.1956678970
C                 0.4716428305       -0.3050946082        0.0661780272
C                 0.2417893056       -1.3003865967       -1.0980834027
C                -0.6181134225       -2.5204960078       -0.7318008241
C                -1.9690106437       -2.2468679422       -0.0449897007
C                -1.8447571695       -1.6244806296        1.3566934478
C                -1.6465659442       -0.0914757823        1.3928885551
N                -0.7234561516        0.4662994564        0.4164930922
C                -1.1798479395        1.5491722764       -0.4577582154
C                -2.4096490779        1.2293726061       -1.3373050159
C                -1.4238359525        2.8451769037        0.3406810742
H                 4.2928165655        1.2779087514       -0.9854107446
H                 5.1356328649        0.6074703439        0.4254594049
H                 4.0175793345        1.9638479509        0.6341780881
H                 2.9463050624       -0.1732096268        1.3626887115
H                 4.1194717280       -1.5391557621       -0.0973838080
H                 1.5411671873        1.5586709782        0.3357860991
H                 1.7869760775        0.8502591058       -1.2647322681
H                 0.7184119392       -0.8921083602        0.9619270650
H                 1.2126546428       -1.6587069804       -1.4556315439
H                -0.2166664873       -0.7500919769       -1.9317519603
H                -0.0289823358       -3.1727620159       -0.0689534558
H                -0.7974505455       -3.1065342937       -1.6438464900
H                -2.4962575767       -3.2061845292        0.0472688167
H                -2.6006168718       -1.6138579056       -0.6820333256
H                -2.7447816044       -1.8459149250        1.9473918664
H                -1.0195098970       -2.1194963143        1.8870843223
H                -1.3530147354        0.1795962189        2.4242104845
H                -2.6237314632        0.3780247848        1.2336463642
H                -0.3501768364        1.7493074931       -1.1447093545
H                -3.3022384746        1.0286836229       -0.7329357583
H                -2.2312331944        0.3582149723       -1.9744108830
H                -2.6438759549        2.0820540334       -1.9866141953
H                -2.2468779370        2.7211031769        1.0550852896
H                -1.6877203327        3.6764694075       -0.3247836746
H                -0.5291006469        3.1229855583        0.9076788747



