%chk=./calculation/no_transfer_pubchem_sampling_0_b3lyp/114613465.chk
%nprocshared=7
%mem=6GB
#p b3lyp/6-31g(d) opt SCF=XQC 

Gaussian input prepared by ASE

0 1
C                -1.3431983198       -1.6289854260        1.4826214649
C                -2.4985577078       -1.0932370648        0.6357851692
C                -3.7039751483       -0.7328926424        1.4969033943
N                -2.0484213748        0.0779838432       -0.0832729235
C                -1.6594711115        0.1429798395       -1.3750673884
C                -1.2206394560        1.4354699281       -1.5908347733
N                -0.6496349421        1.9970307590       -2.7348287743
S                 0.8952344864        2.6263772614       -2.4926916099
O                 1.5518667642        2.5552369098       -3.7624703838
O                 0.7929115688        3.8843916125       -1.8258959949
C                 1.5897346882        1.4334456928       -1.3491130948
C                 1.7680662870        1.7716428257       -0.0174063177
C                 2.1670930966        0.7833812023        0.8616925627
C                 2.3556457063       -0.5102473914        0.3716894294
C                 2.7587760278       -1.6460605946        1.2859780039
N                 2.9300210993       -2.9294680276        0.6420664247
N                 2.1884659239       -0.8169290680       -0.9091848350
C                 1.8179101926        0.1324431926       -1.7507319007
C                -1.3673501666        2.0698806484       -0.3458603842
N                -1.8592355048        1.2294540350        0.5444394644
H                -1.6484207682       -2.5255442491        2.0145234032
H                -0.4901882309       -1.8682783223        0.8509254574
H                -1.0430234182       -0.8719836361        2.2026613235
H                -2.7817032248       -1.8399307350       -0.1148104783
H                -4.5247890019       -0.3859322857        0.8744439037
H                -4.0330986988       -1.5998899722        2.0623079575
H                -3.4300300596        0.0630995919        2.1830206758
H                -1.7464594261       -0.6914072129       -2.0413171135
H                -0.6790467123        1.4065704325       -3.5522799115
H                 1.5897376775        2.7888454919        0.2934385755
H                 2.3186632588        0.9939364023        1.9087105923
H                 1.9987027916       -1.7525143797        2.0685632516
H                 3.6992737529       -1.3815282204        1.7807798469
H                 3.6603845754       -2.8633266800       -0.0593647197
H                 2.0794508266       -3.1794653887        0.1480107965
H                 1.7010390712       -0.1580950999       -2.7859713935
H                -1.1357355226        3.0835457281       -0.0934077005



