%chk=calculation/no_transfer_pubchem_sampling_0_b3lyp/115237537_rwf.chk
%rwf=calculation/no_transfer_pubchem_sampling_0_b3lyp/115237537_rwf.rwf
%nprocshared=14
%mem=3GB
#p b3lyp/6-31g(d) 6D 10F nosymm GFInput td=(50-50,nstate=2) SCF=XQC 

Gaussian input prepared by ASE

0 1
C                -4.4203042720       -1.0800108924       -1.4875680203
C                -4.4661438179        0.4238169653       -1.1869954008
C                -5.8476480546        1.0078976987       -1.5144742159
C                -4.0810873089        0.7351433208        0.2815234488
C                -2.6629694358        0.3661808302        0.6607449807
C                -2.3675207852       -0.7654265362        1.4272121387
C                -1.0607367667       -1.1131742744        1.7652280390
C                 0.0334927443       -0.3292378678        1.3413518613
N                 1.3428523096       -0.6757342867        1.6760448708
C                 1.5748978605       -1.8289783314        2.5274517813
C                 2.4438402424        0.2435696700        1.4329659360
C                 3.0698834430        0.1267960468        0.0328059907
C                 3.8623500324       -1.1611861868       -0.1741000998
N                 4.3772093564       -1.2113478498       -1.5515101924
C                 4.7393017957        0.1138196048       -2.0845249921
C                 5.0271713844        1.1277724227       -0.9790911008
O                 3.9052250812        1.2846921928       -0.1091122697
C                -0.2610578576        0.8148859830        0.5647166747
C                -1.5738200128        1.1442129138        0.2448037605
H                -4.6548296103       -1.2777281556       -2.5403990527
H                -5.1551147982       -1.6222677544       -0.8769190534
H                -3.4324954463       -1.5016541248       -1.2754806582
H                -3.7257062748        0.9200000952       -1.8323786358
H                -5.8763449082        2.0911672421       -1.3448185162
H                -6.6248552305        0.5522726099       -0.8865962920
H                -6.1186185035        0.8243333578       -2.5610735304
H                -4.2355293809        1.8098033338        0.4539225244
H                -4.7861388961        0.2144695194        0.9451434291
H                -3.1806521262       -1.3960854359        1.7816189851
H                -0.9013023972       -1.9975484743        2.3706670245
H                 2.6492470251       -1.9567973755        2.6720665002
H                 1.1887516334       -2.7502029668        2.0719587230
H                 1.1065569895       -1.7218018095        3.5190455488
H                 2.1179082156        1.2812955258        1.5683046901
H                 3.2250964238        0.0703766409        2.1812306625
H                 2.2680845394        0.1582090151       -0.7204923897
H                 3.2059333306       -2.0227332059       -0.0015099378
H                 4.6595373908       -1.1959349655        0.5919838446
H                 5.1782282957       -1.8342907740       -1.5902252708
H                 5.6097217545        0.0179588303       -2.7434335123
H                 3.9152684787        0.4966670278       -2.7025502874
H                 5.9124730570        0.8146453152       -0.4016747612
H                 5.2375984974        2.1187579182       -1.3979009890
H                 0.5348848232        1.4543415385        0.2010368305
H                -1.7526388207        2.0389926484       -0.3489960664



