%chk=./calculation/no_transfer_pubchem_sampling_0_b3lyp/115237537.chk
%nprocshared=7
%mem=6GB
#p b3lyp/6-31g(d) opt SCF=XQC 

Gaussian input prepared by ASE

0 1
C                -3.9070281189       -0.9758746816       -1.6120165884
C                -4.1065295673        0.4923594441       -1.2482888775
C                -5.4780082265        0.9748549721       -1.7136433476
C                -3.9537896016        0.7046722328        0.2673128608
C                -2.5684291491        0.3783388499        0.7450286038
C                -2.2821895471       -0.8089562709        1.4014496584
C                -1.0000750179       -1.1185022344        1.8126419912
C                 0.0672901592       -0.2419592339        1.5846556847
N                 1.3404798391       -0.5309661420        2.0423284334
C                 1.6084081175       -1.8317125855        2.6066493270
C                 2.4661397681        0.2616155799        1.6268153433
C                 2.8666536962        0.0819885989        0.1469825252
C                 3.7361043848       -1.1506718168       -0.0829657546
N                 4.0024592980       -1.3109909758       -1.5095126514
C                 4.0707013206       -0.0367382821       -2.2147429162
C                 4.4831437669        1.1008844875       -1.2809096707
O                 3.5485921768        1.2725378255       -0.2332348332
C                -0.2256682794        0.9539031303        0.9154528625
C                -1.5116219813        1.2493591244        0.5131190642
H                -3.9841516140       -1.1165836271       -2.6881142642
H                -4.6645841071       -1.5915150433       -1.1306683899
H                -2.9271821640       -1.3186705104       -1.2880208325
H                -3.3356316675        1.0830593610       -1.7558498733
H                -5.6140789738        2.0302206292       -1.4867741617
H                -6.2662311613        0.4131459849       -1.2159339946
H                -5.5868525358        0.8386628139       -2.7875258919
H                -4.1790270809        1.7493655871        0.4974843945
H                -4.6820523466        0.0788639450        0.7879030853
H                -3.0776797462       -1.5140768112        1.5996729552
H                -0.8432225983       -2.0572917858        2.3175773554
H                 2.6550443662       -1.8872462433        2.8974349066
H                 1.4006894487       -2.6463404693        1.9024593077
H                 1.0022404338       -1.9857061736        3.5030908525
H                 2.2504366911        1.3232066228        1.7740658810
H                 3.3214160579        0.0189751872        2.2620763086
H                 1.9500726503       -0.0223477017       -0.4544596562
H                 3.2104510492       -2.0449071877        0.2624510898
H                 4.6560891034       -1.0402110681        0.5148182938
H                 4.8560581453       -1.8424379665       -1.6359760047
H                 4.7666218468       -0.1087885212       -3.0512460299
H                 3.0753063139        0.1844002302       -2.6175380265
H                 5.4816578179        0.8941900800       -0.8629399024
H                 4.5242189621        2.0535681817       -1.8153138854
H                 0.5509775980        1.6689994407        0.6999106664
H                -1.6972195272        2.1852600227        0.0042971016



