%chk=./calculation/no_transfer_pubchem_sampling_0_b3lyp/116543809.chk
%nprocshared=7
%mem=6GB
#p b3lyp/6-31g(d) opt SCF=XQC 

Gaussian input prepared by ASE

0 1
C                -5.5801240165       -0.6853467655       -0.1271584910
C                -4.7246615649       -0.6415005982       -1.3863967256
C                -4.0123999108        0.7074877714       -1.5554895445
C                -3.0180178417        0.9449940423       -0.4553753999
C                -3.3132944698        1.7822109706        0.6126361306
C                -2.4006618627        1.9641502235        1.6369043052
C                -1.1820518484        1.3117242995        1.6070117444
C                -0.8704796333        0.4683677338        0.5478465589
C                 0.4716657025       -0.2276139457        0.5051583674
O                 0.9151044783       -0.6205612808        1.7850177310
C                 1.4922251426        0.7401424286       -0.1158733350
C                 2.9473782056        0.2521087939       -0.1638984153
C                 3.1013419106       -1.2557104896       -0.3857384902
C                 4.5838177445       -1.6204399328       -0.4067884788
C                 5.2253920595       -1.1326664990        0.8893082068
C                 4.9469356328        0.3619661305        1.0514057269
O                 3.5721707687        0.6528263528        1.0397819166
C                -1.7917443055        0.2932855163       -0.4733362254
H                -6.0751132162       -1.6496364818       -0.0368938699
H                -4.9654441885       -0.5287371635        0.7564875557
H                -6.3431053476        0.0897177348       -0.1571761884
H                -3.9776998592       -1.4371378233       -1.3452298429
H                -5.3558431812       -0.8191488128       -2.2601418023
H                -4.7567274529        1.5059986966       -1.5618314459
H                -3.4967260131        0.7137375417       -2.5187890835
H                -4.2633689354        2.2962439590        0.6408645787
H                -2.6397049101        2.6198718089        2.4615333182
H                -0.4617743226        1.4538552582        2.3994255804
H                 0.3846527434       -1.1185227001       -0.1418792026
H                 0.1682755954       -0.9838379687        2.2731381748
H                 1.4908263428        1.6582448415        0.4730809042
H                 1.1522642930        0.9699606200       -1.1266869807
H                 3.4504529475        0.7763521986       -1.0009461608
H                 2.6196152957       -1.7743195141        0.4428681252
H                 2.6186122130       -1.5396907466       -1.3224337847
H                 5.0702209558       -1.1390221041       -1.2601272360
H                 4.7073336612       -2.7001440332       -0.5123812770
H                 6.3024934186       -1.3064702989        0.8840339408
H                 4.7871473433       -1.6660661161        1.7343234864
H                 5.3183936807        0.7282556634        2.0110408223
H                 5.4514983384        0.9157096251        0.2400698100
H                -1.5488775936       -0.3606379364       -1.3002650040



