%chk=calculation/no_transfer_pubchem_sampling_0_b3lyp/117330409_rwf.chk
%rwf=calculation/no_transfer_pubchem_sampling_0_b3lyp/117330409_rwf.rwf
%nprocshared=14
%mem=3GB
#p b3lyp/6-31g(d) 6D 10F nosymm GFInput td=(50-50,nstate=2) SCF=XQC 

Gaussian input prepared by ASE

0 1
C                 1.8218692422       -2.1524111472        0.5944556992
S                 1.5849743922       -1.3239895429       -0.9901982067
O                 2.9105131309       -1.1512743094       -1.6101672481
O                 0.5315373528       -2.0309058738       -1.7352546407
C                 1.0151044188        0.3526361074       -0.5196928797
C                 1.9650022122        1.3508787334       -0.7455552452
C                 1.6938435614        2.6741702459       -0.3969276139
C                 0.4803784303        2.9924320014        0.2000690821
C                -0.4454569924        1.9770796954        0.4145093908
F                -1.6001272462        2.3250283628        1.0284564157
C                -0.2519899154        0.6399930291        0.0425731040
C                -1.3596609462       -0.3530560213        0.3090066871
N                -1.1249621157       -1.1146601273        1.5335343202
C                -2.7815693336        0.0084915310       -0.0953847066
C                -2.0347539927       -1.0728481153       -0.8294607948
H                 2.0804949583       -3.1873683783        0.3551789810
H                 2.6481454017       -1.6644719163        1.1156925408
H                 0.8895415336       -2.0842851502        1.1639455672
H                 2.9116674428        1.0747169267       -1.1947932329
H                 2.4326440217        3.4485374890       -0.5799788017
H                 0.2330363179        4.0024590885        0.5099016094
H                -1.2896578397       -0.5162487925        2.3441177613
H                -1.7957249118       -1.8790016318        1.5956758785
H                -3.5705480416       -0.2744478930        0.5977785151
H                -2.9614275647        0.9481797666       -0.6086347507
H                -1.6816850829       -0.8754538244       -1.8341899450
H                -2.3011884342       -2.1141812537       -0.6646564867



