%chk=calculation/no_transfer_pubchem_sampling_0_b3lyp/119202993_rwf.chk
%rwf=calculation/no_transfer_pubchem_sampling_0_b3lyp/119202993_rwf.rwf
%nprocshared=14
%mem=3GB
#p b3lyp/6-31g(d) 6D 10F nosymm GFInput td=(50-50,nstate=2) SCF=XQC 

Gaussian input prepared by ASE

0 1
C                -4.8312368031        1.0176566174        1.4677914214
C                -4.2995705782       -0.2709942917        0.8302866935
C                -5.4471220843       -1.1774372250        0.3743357247
O                -6.6244762382       -0.9217145735        0.4754381211
O                -4.9858706838       -2.3515033753       -0.1183738953
N                -3.3302945039       -0.0570131242       -0.2567854635
C                -1.9611849944       -0.1818440191       -0.0731299818
O                -1.1967520834       -0.1543087311       -1.0301105845
C                -1.4337994344       -0.3232209142        1.3598714039
C                 0.0963878072       -0.2379471767        1.4431701989
C                 0.8089409965       -1.4989142770        0.9101797317
C                 2.2885052277       -1.4433335826        1.0789849952
N                 3.0459051420       -2.1544186757        1.8623430118
C                 4.3278232847       -1.6799995526        1.6369115696
C                 4.2994837420       -0.6766247433        0.7103339550
C                 5.2935815552        0.1812176221        0.0818076277
C                 4.9234584142        1.1204019115       -0.8965169962
C                 5.8845562346        1.9350802198       -1.4915867576
C                 7.2273110581        1.8294647147       -1.1248819141
C                 7.6036906632        0.8982714781       -0.1530379259
C                 6.6489690006        0.0822115140        0.4458985051
O                 2.9779262819       -0.5210219492        0.3474058877
C                -3.7806929189       -0.0107318858       -1.6343241955
C                -3.5323633887        1.2122492776       -2.4688164431
C                -4.9392385958        0.8673910482       -2.0529856932
H                -3.9947290567        1.6459003003        1.7879843690
H                -5.4510567516        1.5883475115        0.7741138915
H                -5.4460771490        0.7799412049        2.3411184130
H                -3.7932642320       -0.8517957557        1.6071280273
H                -5.7737998500       -2.8700926609       -0.3689168837
H                -1.8793811647        0.4553852694        1.9917927054
H                -1.7687904925       -1.2825212873        1.7807367676
H                 0.4436888391        0.6353668689        0.8824242872
H                 0.3768792303       -0.0878523710        2.4928230381
H                 0.4639100189       -2.3870294636        1.4500613737
H                 0.5595036490       -1.6205718617       -0.1484915437
H                 5.1793724831       -2.0972087285        2.1553731782
H                 3.8812897437        1.2041567508       -1.1861684232
H                 5.5812089448        2.6553701578       -2.2467573129
H                 7.9745072934        2.4658143437       -1.5909321968
H                 8.6461226685        0.8078333909        0.1405661793
H                 6.9535512719       -0.6361598977        1.2018973921
H                -3.6911830559       -0.9658286483       -2.1477915376
H                -3.0586394068        2.0557082941       -1.9767806374
H                -3.2252795632        1.0620669200       -3.4992041395
H                -5.4172281899        1.5033104714       -1.3170801306
H                -5.6245443309        0.4569418852       -2.7891668137



