%chk=./calculation/no_transfer_pubchem_sampling_0_b3lyp/119202993.chk
%nprocshared=7
%mem=6GB
#p b3lyp/6-31g(d) opt SCF=XQC 

Gaussian input prepared by ASE

0 1
C                -4.7716250458        1.0382001606        1.3903274298
C                -4.2554557309       -0.2859263841        0.8196419128
C                -5.4054818287       -1.1773259652        0.3555196451
O                -6.5641049310       -0.9943924591        0.6073565806
O                -4.9623277208       -2.2446575547       -0.3091700810
N                -3.2720962601       -0.1138727243       -0.2291367948
C                -1.9216961186       -0.0953459331       -0.0358818729
O                -1.1689233639        0.0638613912       -0.9745552993
C                -1.4222893123       -0.2790924871        1.3899963672
C                 0.1007057864       -0.1834884098        1.4699451863
C                 0.7823305607       -1.4040602641        0.8377679528
C                 2.2530166992       -1.3267977292        1.0057990990
N                 2.9731697390       -1.9980112291        1.8524185033
C                 4.2506959923       -1.5691691379        1.6588150171
C                 4.2594236413       -0.6195284905        0.6705211065
C                 5.3107237138        0.1651972199        0.0604676005
C                 5.0079509991        1.0745821110       -0.9538428070
C                 6.0093133663        1.8250168276       -1.5385578833
C                 7.3227016507        1.6808176945       -1.1224557527
C                 7.6310061295        0.7794652498       -0.1155827984
C                 6.6360907238        0.0251531455        0.4744954591
O                 2.9693830530       -0.4723048964        0.2593926207
C                -3.6833567889        0.0042210497       -1.6043250811
C                -3.8384068752        1.3612253141       -2.2310122254
C                -5.0365776140        0.4869227241       -2.0149614658
H                -3.9659418830        1.5735915147        1.8849448700
H                -5.1746698654        1.6727915330        0.6076500705
H                -5.5612507314        0.8367742750        2.1088675366
H                -3.7941588177       -0.8564392100        1.6359795841
H                -5.7026728850       -2.8101225228       -0.5813925278
H                -1.8641046322        0.4912505321        2.0249314816
H                -1.7396508582       -1.2573605478        1.7597784552
H                 0.4306634205        0.7146125654        0.9459121254
H                 0.4005254034       -0.1080126906        2.5173722548
H                 0.4377526843       -2.3205307306        1.3174871309
H                 0.5379787120       -1.4259124943       -0.2249737933
H                 5.0578716103       -1.9699288767        2.2353305931
H                 3.9833114861        1.1830108374       -1.2759278831
H                 5.7648265489        2.5259534660       -2.3232650474
H                 8.1044324348        2.2681944532       -1.5808690784
H                 8.6544688335        0.6649585644        0.2104056996
H                 6.8791413783       -0.6758453824        1.2578140069
H                -3.2246278713       -0.7634337121       -2.2190476410
H                -3.7192931985        2.2203018941       -1.5893178669
H                -3.4652074842        1.5093389615       -3.2312365669
H                -5.7595681213        0.7772977265       -1.2705014921
H                -5.4839986287        0.0088196209       -2.8739853311



