%chk=calculation/no_transfer_pubchem_sampling_0_b3lyp/119690270_rwf.chk
%rwf=calculation/no_transfer_pubchem_sampling_0_b3lyp/119690270_rwf.rwf
%nprocshared=14
%mem=3GB
#p b3lyp/6-31g(d) 6D 10F nosymm GFInput td=(50-50,nstate=2) SCF=XQC 

Gaussian input prepared by ASE

0 1
C                -2.8644716294        3.1102441726       -1.2032300370
C                -2.2838660446        1.8537018683       -0.5419808177
N                -1.8536144652        0.8239947835       -1.4890382751
C                -0.6178870226        1.1204853364       -2.2396621928
C                 0.6492537698        0.9527871829       -1.4213076554
C                 1.3909114350        2.0584789295       -1.0053740073
C                 2.5555334225        1.8829947350       -0.2496560879
C                 2.9847764947        0.6109059837        0.1058913848
O                 4.0883468819        0.4710506992        0.9158954932
C                 5.2472134738       -0.1237714320        0.3000290886
C                 6.1738445695       -0.6137152845        1.3636765383
C                 7.4832318132       -0.2676227183        1.5697024029
C                 8.0909418403       -0.9654219039        2.6576825844
C                 7.2282062438       -1.8312021127        3.2702555549
S                 5.6601360526       -1.8117667527        2.5275373076
C                 2.2338633581       -0.5171491771       -0.3033331083
O                 2.7176536853       -1.7301365456        0.0975669238
C                 1.9848667684       -2.8937432896       -0.2629902970
C                 1.0814362985       -0.3377574552       -1.0666802488
C                -2.3546397025       -0.4560334540       -1.5877993049
O                -1.7922934213       -1.2957838009       -2.2960568541
C                -3.6070830911       -0.8958980480       -0.8157761043
C                -3.3622326955       -1.1946510149        0.6938124703
C                -4.7709111619       -1.1307652371        1.3009669443
C                -5.4230116431        0.0684462858        0.5931438701
N                -6.8873057715        0.0160563847        0.6494314823
C                -4.9064108942       -0.0299818560       -0.8632878267
H                -2.1308340779        3.6168502739       -1.8384452866
H                -3.7338686041        2.8691901961       -1.8237562068
H                -3.1779630671        3.8227800677       -0.4315382163
H                -3.0203707405        1.4289720605        0.1368488319
H                -1.4179603181        2.1313832378        0.0746380726
H                -0.6098546541        0.4510145108       -3.1005008880
H                -0.6826198048        2.1494203811       -2.6069890674
H                 1.0728601031        3.0619937924       -1.2781218224
H                 3.1428140957        2.7322904804        0.0866092476
H                 5.7659314638        0.6271062710       -0.3126731639
H                 4.9303130061       -0.9429875777       -0.3536961197
H                 7.9983405291        0.4669766879        0.9585859805
H                 9.1189959155       -0.8198081324        2.9715915780
H                 7.4141707419       -2.4677325448        4.1252559247
H                 0.9669760453       -2.8675209363        0.1454178266
H                 2.5307890564       -3.7334086915        0.1703301537
H                 1.9300641924       -3.0140289713       -1.3523182820
H                 0.4928177698       -1.1853224552       -1.3976599915
H                -3.8296762641       -1.8527605616       -1.2930131987
H                -2.8724312903       -2.1628839523        0.8363450243
H                -2.7133273271       -0.4405284904        1.1551633245
H                -5.3417594151       -2.0329579059        1.0467506811
H                -4.7651994449       -1.0336836977        2.3932689876
H                -5.0163048365        0.9906489718        1.0517522353
H                -7.1950685398        0.0997881591        1.6182788977
H                -7.2789100999        0.8233695290        0.1646287643
H                -4.7586995913        0.9533262162       -1.3182096166
H                -5.6657104084       -0.5452311975       -1.4611538987



