%chk=./calculation/no_transfer_pubchem_sampling_0_b3lyp/123548890.chk
%nprocshared=7
%mem=6GB
#p b3lyp/6-31g(d) opt SCF=XQC 

Gaussian input prepared by ASE

0 1
C                -2.4407625201        0.9393001652        1.1010592819
C                -2.2605347071       -0.0921433490        0.0345110961
C                -3.5214616343       -0.7966370775       -0.3520441551
C                -1.0965012231       -0.4085834549       -0.5607831183
C                 0.1796818802        0.1742622044       -0.2769414269
C                 1.3472912913       -0.1164316179       -0.8952056405
C                 2.6247855464        0.4848524075       -0.5675437562
C                 3.0312535688        0.8678038773        0.6442560380
C                 2.3806360119        0.7267755474        1.9734085414
F                 4.2557136924        1.4419771179        0.7273671186
C                 1.3685448385       -1.0941854207       -2.0417781249
F                 0.5509320806       -0.7412414314       -3.0549674994
F                 0.9769194053       -2.3322110738       -1.6706789309
F                 2.5805329343       -1.2486122395       -2.5910746836
H                -3.2297049375        1.6325073911        0.8113418843
H                -2.7559542998        0.4574223223        2.0269793109
H                -1.5391384654        1.5084914487        1.2988403464
H                -3.3361745895       -1.5697242155       -1.0921880335
H                -3.9830216630       -1.2517081095        0.5239527704
H                -4.2371277742       -0.0849118786       -0.7637127094
H                -1.1238504928       -1.1787473835       -1.3177232741
H                 0.2179173270        0.9355697433        0.4855997994
H                 3.3251471795        0.6074787823       -1.3826384226
H                 1.6574341502       -0.0837976417        1.9584043415
H                 3.1479555448        0.5198430720        2.7181152497
H                 1.8794878555        1.6508758143        2.2634439966



