%chk=calculation/no_transfer_pubchem_sampling_0_b3lyp/123949380_rwf.chk
%rwf=calculation/no_transfer_pubchem_sampling_0_b3lyp/123949380_rwf.rwf
%nprocshared=14
%mem=3GB
#p b3lyp/6-31g(d) 6D 10F nosymm GFInput td=(50-50,nstate=2) SCF=XQC 

Gaussian input prepared by ASE

0 1
C                 2.5248084611        1.0185341262       -1.2571294382
C                 1.5447914196        0.5411809389       -0.2098476125
N                 1.7713317054        0.4351288151        1.0413564644
C                 0.1722007377        0.1603490131       -0.7286499621
N                -0.6854664721       -0.2800231927        0.3439249055
C                -1.9673704989       -0.6721033535        0.1106501392
C                -2.7541986419       -1.1113295191        1.3377475501
O                -2.4563565071       -0.6713990571       -1.0152632742
H                 2.6857161362        0.2448382496       -2.0181649006
H                 2.1351582077        1.9020007291       -1.7780238458
H                 3.4905271393        1.2746918342       -0.8107706033
H                 2.7283010476        0.7196123845        1.2721748173
H                -0.2720042673        1.0188811864       -1.2543308076
H                 0.2741438207       -0.6250135920       -1.4925537654
H                -0.2681535503       -0.2751605200        1.2671090191
H                -3.6458493722       -0.4830852142        1.4290320338
H                -2.1824105091       -1.0563958820        2.2694286289
H                -3.0951688533       -2.1407079551        1.1888056502



