%chk=./calculation/no_transfer_pubchem_sampling_0_b3lyp/123949380.chk
%nprocshared=7
%mem=6GB
#p b3lyp/6-31g(d) opt SCF=XQC 

Gaussian input prepared by ASE

0 1
C                 2.5087009733        1.0116170945       -1.2463275279
C                 1.5248868473        0.5356815979       -0.2175302219
N                 1.7240591684        0.4224109096        1.0207461748
C                 0.1710978558        0.1632566759       -0.7512415392
N                -0.6910805619       -0.2777355725        0.3152716528
C                -1.9625733852       -0.6685235157        0.0969456321
C                -2.7141485246       -1.0982614727        1.3393843030
O                -2.4555063285       -0.6713722270       -1.0134995700
H                 2.6670534875        0.2372537552       -1.9947238366
H                 2.1176780287        1.8908572974       -1.7550994037
H                 3.4636225553        1.2625180107       -0.7884455426
H                 2.6525684846        0.6843830942        1.3416605818
H                -0.2757504030        1.0251068184       -1.2644380323
H                 0.2739244424       -0.6294041838       -1.5041990620
H                -0.2555076394       -0.2650825436        1.2265673883
H                -3.5981082739       -0.4741205799        1.4487830920
H                -2.1011168905       -1.0239738272        2.2320512724
H                -3.0497998361       -2.1246123315        1.2095896391



