%chk=calculation/no_transfer_pubchem_sampling_0_b3lyp/124618123_rwf.chk
%rwf=calculation/no_transfer_pubchem_sampling_0_b3lyp/124618123_rwf.rwf
%nprocshared=14
%mem=3GB
#p b3lyp/6-31g(d) 6D 10F nosymm GFInput td=(50-50,nstate=2) SCF=XQC 

Gaussian input prepared by ASE

0 1
C                -6.3545937618        0.8156924700       -0.6972085237
C                -4.9522558872        0.2699995089       -0.5768200591
C                -4.5089029163       -0.1753162685        0.6797110748
C                -3.2365175518       -0.6963959601        0.8873288940
C                -2.3263778591       -0.8087231479       -0.1723877701
C                -0.9532188260       -1.4227830933        0.0320278780
N                -0.3079560468       -0.9401434146        1.2563898547
C                 0.8244360339       -1.7621729504        1.7192903499
C                 2.2060684604       -1.1914493731        1.3084557627
N                 2.0731915099       -0.4749356827        0.0410871598
C                 3.3220433208       -0.3328401237       -0.7237415592
C                 3.0574827390        0.1654815606       -2.1491674683
C                 4.4047582044        0.4659837550       -0.0087431195
N                 5.2568005906       -0.0798038159        0.8159978145
C                 6.0932914191        0.8572637390        1.3761958230
C                 5.8938441304        2.1492802321        0.9855796535
S                 4.5877300003        2.2194955339       -0.1509769572
C                 1.2445249010        0.7282012164        0.1803216071
C                 0.1007337159        0.4611109171        1.1941434012
C                -2.7358588892       -0.3743515532       -1.4288019102
C                -4.0176642611        0.1514818605       -1.6241824535
N                -4.3315266301        0.5856842575       -2.9974594291
O                -3.5202474801        0.3177244152       -3.8856106360
O                -5.3824260245        1.1983463660       -3.1955360242
H                -6.8721253380        0.7062687074        0.2608262666
H                -6.9296385548        0.2975622102       -1.4695950766
H                -6.3533132311        1.8728874562       -0.9777024100
H                -5.1970276134       -0.1063029429        1.5181157772
H                -2.9280117927       -1.0130301299        1.8792152924
H                -1.0737073224       -2.5084524164        0.1425399183
H                -0.3432604364       -1.2718725781       -0.8735016991
H                 0.7858299816       -1.8445627140        2.8154352709
H                 0.7028491639       -2.7719460035        1.3153478009
H                 2.9262129830       -2.0054383494        1.1801667369
H                 2.6123357870       -0.5514144360        2.1117471459
H                 3.7399031360       -1.3442092931       -0.7902641628
H                 2.7194165843        1.2069131335       -2.1763813324
H                 3.9716864236        0.0985215262       -2.7470442063
H                 2.2860400376       -0.4541806891       -2.6164286528
H                 6.8541970863        0.5320181711        2.0770224043
H                 6.4300407189        3.0380498268        1.2883484714
H                 1.8155730457        1.6097910271        0.5245793748
H                 0.8276221321        0.9806514737       -0.8012603597
H                -0.7635362500        1.0865197575        0.9495505563
H                 0.4230401084        0.7503763430        2.2017997903
H                -2.0714845416       -0.4349825290       -2.2825022694



