%chk=./calculation/no_transfer_pubchem_sampling_0_b3lyp/124618123.chk
%nprocshared=7
%mem=6GB
#p b3lyp/6-31g(d) opt SCF=XQC 

Gaussian input prepared by ASE

0 1
C                -5.9248348663        1.0351274939       -0.8690524922
C                -4.6141468528        0.3650301928       -0.6296446855
C                -4.3678685179       -0.2374987263        0.6028809605
C                -3.1803016886       -0.8821921052        0.8813127150
C                -2.1711734258       -0.9604601350       -0.0763711883
C                -0.8823185911       -1.6644984944        0.2356950078
N                -0.2938796248       -1.1351691752        1.4625055420
C                 0.8968434463       -1.8562164779        1.8863777613
C                 2.1975256036       -1.2528600032        1.3136472164
N                 1.8875669492       -0.5754937365        0.0684406849
C                 3.0394217426       -0.3787707739       -0.8057864878
C                 2.6160977865        0.1136525037       -2.1866077415
C                 4.0738619680        0.5112443412       -0.1877577034
N                 4.9688475067        0.0943332955        0.6359792430
C                 5.7346820398        1.0968293927        1.1213344917
C                 5.4208058614        2.3364514019        0.6652103229
S                 4.0992820229        2.2514729796       -0.4299681470
C                 1.0699486803        0.6033001234        0.3087966638
C                 0.0121565085        0.2782495752        1.3844882807
C                -2.3921151607       -0.3698779696       -1.3041144245
C                -3.5912912310        0.2855314486       -1.5831381776
N                -3.7083262388        0.8687411552       -2.8928706758
O                -2.8858640178        0.5404670165       -3.7259600885
O                -4.6052927405        1.6580986951       -3.1071940068
H                -6.6025814411        0.8428159120       -0.0410045102
H                -6.3812319285        0.6880141949       -1.7942627717
H                -5.7887156147        2.1106117856       -0.9739819353
H                -5.1373937338       -0.1956497501        1.3595445601
H                -3.0137867425       -1.3283481739        1.8494267818
H                -1.1010316065       -2.7221278379        0.4195548347
H                -0.1989516703       -1.5982356466       -0.6210531076
H                 0.9358250887       -1.8239001600        2.9808075286
H                 0.7977599598       -2.8988288968        1.5832756571
H                 2.9211660850       -2.0437303282        1.1140171306
H                 2.6541557702       -0.5670970165        2.0456351322
H                 3.5007202118       -1.3697064290       -0.9090054877
H                 2.2743775005        1.1451057583       -2.1507123517
H                 3.4611965436        0.0564674901       -2.8680813218
H                 1.8146021691       -0.5120001086       -2.5696963486
H                 6.5223575616        0.8623333014        1.8140334206
H                 5.8747401992        3.2776407797        0.8987130845
H                 1.6626039634        1.4718702611        0.6404615573
H                 0.5732339309        0.8699759974       -0.6268454424
H                -0.9052980754        0.8342222545        1.1817013180
H                 0.3744393511        0.5761225883        2.3717971227
H                -1.6378136819       -0.4010499937       -2.0766199222



