%chk=calculation/no_transfer_pubchem_sampling_0_b3lyp/126624066_rwf.chk
%rwf=calculation/no_transfer_pubchem_sampling_0_b3lyp/126624066_rwf.rwf
%nprocshared=14
%mem=3GB
#p b3lyp/6-31g(d) 6D 10F nosymm GFInput td=(50-50,nstate=2) SCF=XQC 

Gaussian input prepared by ASE

0 1
C                 4.8970539114       -2.2704373265        2.0979564697
O                 4.3153695487       -1.4931447917        1.0386930310
C                 2.9781633247       -1.5393326972        0.9847326392
O                 2.2533858077       -2.1611171459        1.7265069994
O                 2.5918240520       -0.7713331158       -0.0615837358
C                 1.2070208451       -0.5803960598       -0.2156356982
C                 0.5396689071       -1.3240735508       -1.1110435806
C                 1.1408747997       -2.4431015954       -1.9356611735
C                 0.6967770360       -3.8219179807       -1.4048398402
C                 0.8447651808       -2.2892289084       -3.4398584880
N                -0.8379267961       -1.0944412646       -1.2687135338
C                -1.5363509344       -0.2304075835       -0.4669136254
C                -0.8905877054        0.5468574839        0.4518398188
C                -1.6504418625        1.4102838564        1.3499179049
O                -1.1009027232        2.0701118276        2.2321617917
C                -3.1615695924        1.5074624826        1.1451169662
C                -3.8186805659        0.2320423362        0.5776985624
C                -3.7892623191       -0.8992024189        1.6248666047
C                -5.2790066167        0.5208256143        0.1917365826
C                -3.0294665191       -0.1815018182       -0.6859944909
C                 0.6246707253        0.5380411084        0.6105532605
C                 1.2632440774        1.8930711133        0.2573659212
C                 1.1267412315        2.4505433364       -0.9498781459
C                 1.7765179996        3.7578741843       -1.3223041096
O                 2.7267750433        4.2109920724       -0.3738324891
C                 2.2576944010        4.0688433107        0.9632557466
C                 2.0636947868        2.5969557101        1.3273265849
H                 5.9731764889       -2.1247311299        2.0028787423
H                 4.5456634477       -1.9173623111        3.0708085702
H                 4.6405945915       -3.3272064920        1.9856110561
H                 2.2243485183       -2.3669517003       -1.8073918733
H                -0.3870263177       -3.9647575409       -1.5038779027
H                 1.1868562164       -4.6248857809       -1.9674535921
H                 0.9543283089       -3.9285094638       -0.3465886922
H                 1.3761034794       -3.0614520126       -4.0068435384
H                 1.1665341736       -1.3106458540       -3.8109356218
H                -0.2226658381       -2.4033731303       -3.6708741275
H                -1.3517011530       -1.6958761417       -1.8942007571
H                -3.3359780362        2.3445574304        0.4509326549
H                -3.6093226975        1.7970725173        2.1018709121
H                -4.2618445427       -1.8076409525        1.2310660095
H                -2.7676892191       -1.1523217700        1.9256680081
H                -4.3389306566       -0.6016050321        2.5252415934
H                -5.7610806531       -0.3706290996       -0.2291943409
H                -5.8587072273        0.8288738537        1.0696964149
H                -5.3460932560        1.3238983917       -0.5523937319
H                -3.3826963827       -1.1606278919       -1.0406315465
H                -3.2425492855        0.5341577240       -1.4947159462
H                 0.8565926488        0.3454685186        1.6682581360
H                 0.5238303020        1.9732612018       -1.7221481396
H                 0.9979030607        4.5290040800       -1.4843091501
H                 2.3223166878        3.6582048140       -2.2695518027
H                 3.0094887421        4.5467177550        1.5985542364
H                 1.3049431341        4.6087314993        1.0919400655
H                 1.5331792802        2.5191544471        2.2841171157
H                 3.0403821419        2.1052058913        1.4509992755



