%chk=./calculation/no_transfer_pubchem_sampling_0_b3lyp/126603483.chk
%nprocshared=7
%mem=6GB
#p b3lyp/6-31g(d) opt SCF=XQC 

Gaussian input prepared by ASE

0 1
C                 1.0525040666       -2.9614911502        2.9525124641
C                -0.2576437973       -2.4432374635        2.4385507108
C                -1.0577679718       -3.2388529223        1.6270738228
C                -2.3047316827       -2.8240034310        1.1860429198
C                -2.7491536198       -1.5723271611        1.5765601129
C                -1.9429652799       -0.7483287492        2.3648133978
C                -0.7098612817       -1.1740305737        2.7995401435
C                -2.6726023657        0.5451130156        2.6052969485
C                -1.8959214131        1.7258642219        2.0125751511
C                -2.9297381418        0.7603455752        4.1003052211
C                -3.9712579973        0.3188401264        1.8362619224
C                -4.9176797964        1.2941494864        1.7587334055
C                -6.1052401757        1.3784387829        0.9939355184
C                -6.9711540666        2.4203098404        1.1149298308
C                -8.1614147084        2.6405896436        0.3807739309
N                -8.8825400221        3.6975165734        0.6370310717
C                -9.9762958206        3.6976827618       -0.1977452820
C               -10.9891718388        4.6485364998       -0.2529538788
C               -12.0054612540        4.4580326033       -1.1741668523
C               -11.9905214770        3.3505295844       -1.9997091297
S               -13.3313812069        3.1158703201       -3.1230416895
O               -13.8852985448        4.3686044196       -3.5209271262
O               -12.9954217459        2.1515395245       -4.1319741280
O               -14.4069710947        2.3769284364       -2.1478572534
C               -10.9912838637        2.3919610540       -1.9620176924
C                -9.9780321730        2.5756863534       -1.0535444492
C                -8.7483751027        1.7664763223       -0.7355247403
C                -9.1470329722        0.3724901901       -0.2422257092
C                -7.8306938333        1.6948177049       -1.9593825809
N                -3.9558768071       -0.9441876418        1.3133000615
C                -5.0024624904       -1.6009958417        0.5751635756
C                -4.8170850613       -1.3948584859       -0.9303339709
C                -5.8957576778       -2.0756304318       -1.7706080605
C                -5.4571978890       -2.2391216352       -3.2268985199
C                -5.3234973457       -0.9061335537       -3.9859717575
C                -4.1038199493       -0.9609802228       -4.8906260801
O                -4.1438172160       -1.2537675437       -6.0676313805
N                -2.9536505197       -0.6690245895       -4.2422561329
C                -1.6591426585       -0.8366051781       -4.8538410981
C                -0.7686443640       -1.7782007811       -4.0284041513
N                -0.0848157450       -1.1057347629       -2.9389397206
C                -0.6773216026       -0.6333178572       -1.8374071502
O                -1.8776013408       -0.6627008773       -1.6238769394
C                 0.2779930724       -0.0222467605       -0.8226859536
O                 1.6119052606       -0.1778318235       -1.2303587372
C                 2.5594612994        0.4711965386       -0.3872478340
C                 2.6450018842       -0.2098300611        0.9884304427
C                 4.0835986896       -0.3427369974        1.4788503408
C                 4.9306854844       -1.2376712905        0.5591659784
C                 4.5800132450       -2.7083160716        0.8232313562
C                 4.6016674805       -0.9193152726       -0.9288704586
C                 5.8431785438       -1.0306461776       -1.8179393869
C                 6.9633592852       -0.0558533609       -1.4290963495
C                 6.9618397332        0.1974342495        0.0815285998
C                 6.4494032066       -1.0533162125        0.8146389546
C                 6.8547702148       -0.9978075281        2.2865859668
C                 8.3894074105       -1.0527287618        2.4907644120
O                 8.8522600914       -2.3751093871        2.6716856458
C                 9.1557702495       -0.4168377086        1.3085415553
C                 9.5649380159       -1.4834493304        0.2851574665
C                10.4872401430        0.3367218862        1.6648377029
C                10.6491805031        0.6621016221        3.1092135496
C                11.2125462231       -0.1172002559        4.0400429618
C                11.1029166880        0.5404924257        5.3496486397
O                11.4655724331        0.1613169105        6.4284494497
O                10.4703916400        1.7300704105        5.1606962556
C                10.1593322718        1.9038506242        3.7956562580
C                10.5151507788        1.5579640422        0.7133095271
C                 9.2639441693        1.4707597924       -0.1738465946
C                 8.2794310360        0.7023855490        0.7092028685
O                 7.9294909105        1.5596432384        1.8011757529
C                 3.9038727552        0.4300536830       -1.1149231098
H                 0.8837606051       -3.5728663871        3.8399270274
H                 1.7167674956       -2.1463706254        3.2289158801
H                 1.5449265386       -3.5872101368        2.2108750859
H                -0.6996264929       -4.2164330997        1.3373847676
H                -2.8960712463       -3.4711775041        0.5582607993
H                -0.0955594527       -0.5403047576        3.4231402251
H                -2.4335867783        2.6570197376        2.1697058674
H                -1.7616221889        1.5786248496        0.9431722293
H                -0.9186939793        1.8038152612        2.4834691758
H                -1.9849793263        0.8558964818        4.6297710616
H                -3.5127745115        1.6626431532        4.2641449774
H                -3.4747677033       -0.0849921391        4.5145188354
H                -4.7171500216        2.1723417037        2.3588140701
H                -6.3084109938        0.6179474245        0.2614268883
H                -6.7650166006        3.1880587880        1.8495252436
H               -10.9719435861        5.5023283588        0.4044925659
H               -12.8187725179        5.1576909540       -1.2781707017
H               -14.5854293385        1.5021217960       -2.4949759200
H               -11.0370765107        1.5584888946       -2.6453301379
H                -9.6845203638       -0.1539615830       -1.0285120197
H                -9.7976401657        0.4555216804        0.6261201030
H                -8.2769216008       -0.2149303539        0.0374738217
H                -6.9081403202        1.1695630621       -1.7299436944
H                -7.5791015421        2.6983875489       -2.2960722002
H                -8.3375459147        1.1761357460       -2.7704256839
H                -5.9689942086       -1.2309639870        0.9235028069
H                -4.9583351465       -2.6696511920        0.8088385417
H                -3.8378098310       -1.7916883925       -1.1991562266
H                -4.7842386716       -0.3232667825       -1.1329292878
H                -6.0921371782       -3.0689504409       -1.3588301132
H                -6.8289894369       -1.5107422283       -1.7261014247
H                -6.1687511024       -2.8784868910       -3.7504600035
H                -4.4949655042       -2.7576657780       -3.2339723407
H                -6.2064373510       -0.7262787241       -4.5976375192
H                -5.2068286087       -0.0771993865       -3.2898212939
H                -2.9484631902       -0.5274392182       -3.2380934110
H                -1.8354678304       -1.2551815137       -5.8487571239
H                -1.1599037220        0.1336958126       -4.9619669554
H                -0.0064019834       -2.2224398917       -4.6678520252
H                -1.3942117560       -2.5767417367       -3.6161604117
H                 0.9160403073       -0.9850810204       -2.9863833949
H                 0.0800614412       -0.5003892108        0.1473451833
H                 0.0257590735        1.0459763638       -0.7227731905
H                 2.2457703150        1.5223105325       -0.2712625874
H                 2.0594736933        0.3482471999        1.7213764769
H                 2.2015208719       -1.2018036806        0.8983553824
H                 4.5238455167        0.6523546194        1.5538154193
H                 4.0734226394       -0.7695749183        2.4827672369
H                 4.8260456560       -2.9927850533        1.8431099654
H                 3.5193975649       -2.8885773691        0.6693846288
H                 5.1318101557       -3.3580100593        0.1474346806
H                 3.8859783987       -1.6710946328       -1.2781940036
H                 6.2149880166       -2.0548922605       -1.7580257880
H                 5.5590775872       -0.8570961075       -2.8575799397
H                 6.8327367334        0.8912491386       -1.9555484132
H                 7.9138654059       -0.4781484335       -1.7516434302
H                 6.2422107507        0.9985867894        0.2815102848
H                 6.9345218296       -1.9348274068        0.3954139308
H                 6.4212279957       -1.8411681202        2.8270133257
H                 6.4860752639       -0.0783791039        2.7382712188
H                 8.6060348159       -0.4746273419        3.3985461500
H                 8.4759949723       -2.7220156306        3.4867535390
H                10.1849422155       -1.0495607924       -0.4938069834
H                 8.7186930771       -1.9730152857       -0.1779338128
H                10.1393327976       -2.2459430101        0.8032961911
H                11.3114707936       -0.3385450669        1.4248379071
H                11.6623725209       -1.0825078899        3.9163981668
H                10.6644341943        2.8091551865        3.4412558752
H                 9.0795446609        2.0334000885        3.6723132982
H                11.4249244747        1.5632606853        0.1149196543
H                10.4893098739        2.4826918498        1.2855318876
H                 8.8840014175        2.4589814169       -0.4375522247
H                 9.4707433355        0.9348540813       -1.0961159338
H                 7.5802452178        2.3790462330        1.4315990929
H                 4.5214311374        1.2531688287       -0.7636911225
H                 3.7140104463        0.5895337187       -2.1780161463



