%chk=./calculation/no_transfer_pubchem_sampling_0_b3lyp/127370250.chk
%nprocshared=7
%mem=6GB
#p b3lyp/6-31g(d) opt SCF=XQC 

Gaussian input prepared by ASE

0 1
C                -2.2465861095        1.7346800435       -1.3524766191
C                -1.5792719338        0.5045280693       -0.7331834525
C                -0.4684346926        1.0145442660        0.1807042553
O                -0.6887607723        1.7666369673        1.1157712568
N                 0.7924218848        0.6158446929       -0.0887529161
C                 1.2652952465       -0.2492760528       -1.1529825423
C                 2.7810884531       -0.3115857247       -0.9523104984
C                 2.9843045361       -0.0014289031        0.5388070389
C                 2.7329304732       -1.2462787855        1.3901069391
C                 4.3731823303        0.5567057468        0.8287427196
C                 1.8815146543        1.0337232122        0.7777577499
C                -2.5530336560       -0.4120074209        0.0576263697
C                -3.4128852060        0.3881897338        1.0357584872
C                -3.4568410565       -1.1662749600       -0.9229222010
C                -1.7321205586       -1.4408294710        0.8451880491
H                -2.5436998265        2.4292832948       -0.5722601317
H                -1.5404880325        2.2435992646       -2.0070759384
H                -3.1177911983        1.4592665995       -1.9404307887
H                -1.1509159145       -0.0992999045       -1.5360083304
H                 1.0097949704        0.1571838756       -2.1367706009
H                 0.8212946822       -1.2474369530       -1.0662961492
H                 3.1890558241       -1.2801472633       -1.2355857525
H                 3.2690077265        0.4569963339       -1.5529107669
H                 1.7255487842       -1.6237276863        1.2354937755
H                 3.4414845968       -2.0318143395        1.1356326802
H                 2.8492038961       -1.0100351367        2.4453145255
H                 4.4590767995        0.8278516680        1.8782354489
H                 4.5690482190        1.4425758259        0.2288051494
H                 5.1333643718       -0.1875641375        0.6022715548
H                 2.2172088266        2.0401368539        0.5003120882
H                 1.5295591186        1.0675202777        1.8101519821
H                -3.9550793811       -0.2882912513        1.6932945961
H                -2.7836609587        1.0346915374        1.6410152396
H                -4.1380827671        1.0006967697        0.5068562671
H                -4.1283736380       -1.8241515133       -0.3755729757
H                -2.8668201430       -1.7736587093       -1.6071451439
H                -4.0635634257       -0.4808067258       -1.5085117355
H                -1.1202135879       -0.9484276125        1.5970000082
H                -2.3942924062       -2.1400857404        1.3517576280
H                -1.0834711297       -2.0115287413        0.1821947344



