%chk=./calculation/no_transfer_pubchem_sampling_0_b3lyp/128600196.chk
%nprocshared=7
%mem=6GB
#p b3lyp/6-31g(d) opt SCF=XQC 

Gaussian input prepared by ASE

0 1
C                 5.2707588720        0.6933789704        2.0916271934
C                 5.0956860498        0.4132150299        0.6080721934
C                 4.9835698810       -1.0873307450        0.2578378555
C                 3.8762657902       -1.1437055871       -0.8026903860
C                 3.5440386823        0.3460384791       -1.0474016136
C                 2.1278992799        0.5832746605       -1.4250697695
N                 1.7401956877        0.8818859190       -2.6286328067
N                 0.3987594834        0.9598344368       -2.6327318983
C                -0.0231970699        0.7041638486       -1.4214637397
N                -1.3301232415        0.7547664131       -0.9891584345
C                -2.2576994705        1.3633237268       -1.9429607513
C                -3.2662994121        0.3393957832       -2.4438269779
O                -4.0523460215       -0.1775037955       -1.3914353925
C                -3.3669791156       -0.3568549337       -0.1560820001
C                -3.9118924698       -1.6453667322        0.5091266203
C                -4.7325175037       -1.1851397903        1.7129195190
C                -4.0201562858        0.0869629461        2.1591181788
C                -3.7055856993        0.7823011913        0.8383967248
C                -1.8552552564       -0.4623736420       -0.3720530897
N                 1.0421383678        0.4562104466       -0.5931591215
C                 1.0511594463        0.2656781568        0.8298367136
O                 3.8893873927        1.0047635120        0.1564638693
H                 6.2083031475        0.2687752211        2.4396103940
H                 4.4496378145        0.2568593383        2.6556595497
H                 5.2793725379        1.7658853814        2.2648860447
H                 5.9339785515        0.8572117028        0.0462802510
H                 5.9301424447       -1.4694300734       -0.1183313350
H                 4.7093576933       -1.6609327778        1.1429417435
H                 4.1924124285       -1.6252978308       -1.7244324107
H                 2.9975260632       -1.6664577413       -0.4250817735
H                 4.1637375160        0.7306800991       -1.8723057203
H                -1.6846775957        1.7677265534       -2.7762616488
H                -2.7888110390        2.1745964617       -1.4326897476
H                -3.9670935569        0.8002391570       -3.1433828241
H                -2.7370185905       -0.4723604553       -2.9642555436
H                -4.5100039707       -2.1986694881       -0.2119301338
H                -3.0849321696       -2.2791435499        0.8319768122
H                -5.7477878006       -0.9445924505        1.3980285947
H                -4.7796718734       -1.9409905847        2.4954155441
H                -4.6295199618        0.7039524353        2.8176209804
H                -3.0962933526       -0.1666173455        2.6832328439
H                -2.8928325815        1.5013878005        0.9247224196
H                -4.5928607687        1.2964255726        0.4677689827
H                -1.3839577524       -0.6085154267        0.6012704229
H                -1.6457501095       -1.3466001698       -0.9937010105
H                 0.8806648625       -0.7834342282        1.0891334385
H                 2.0238475559        0.5789031771        1.2059435761
H                 0.2744231201        0.8834789272        1.2811496631



