%chk=calculation/no_transfer_pubchem_sampling_0_b3lyp/129361993_rwf.chk
%rwf=calculation/no_transfer_pubchem_sampling_0_b3lyp/129361993_rwf.rwf
%nprocshared=14
%mem=3GB
#p b3lyp/6-31g(d) 6D 10F nosymm GFInput td=(50-50,nstate=2) SCF=XQC 

Gaussian input prepared by ASE

0 1
C                -5.6857755011        2.2428795478       -1.0012921564
C                -4.6343737079        1.1744577425       -1.0469309310
C                -3.7587003636        0.8804816270       -2.0561066717
C                -2.8862691647       -0.2121622666       -1.7616377919
C                -3.0835257116       -0.7590021924       -0.5235130558
C                -2.3994115288       -1.9524049411        0.0906295479
O                -3.2100332661       -3.1333058262        0.0527359546
C                -1.9006685785       -1.7079441407        1.5363970529
N                -0.9943220090       -0.5903538503        1.7576632239
C                 0.2977975872       -0.6815430293        1.0817482258
C                 1.2328479011        0.4464035631        1.5533217969
C                 2.6030487274        0.3805444394        0.9129154986
C                 3.6604395452       -0.2675914069        1.5603901151
C                 4.9370411841       -0.3871506999        0.9805372262
C                 5.1054453161        0.1644167827       -0.2729021959
C                 4.0628954598        0.8132453493       -0.9298012045
C                 2.8092185986        0.9404799912       -0.3683652291
O                 4.5094711546        1.2976509936       -2.1387335542
C                 5.8262601679        0.7596299095       -2.3019264933
O                 6.2448160279        0.2194077043       -1.0448071125
S                -4.3766742520        0.0965358149        0.3097867439
H                -6.6907326042        1.8241660300       -0.8677595955
H                -5.6797481341        2.8056418109       -1.9400768411
H                -5.5154264655        2.9533042731       -0.1830672577
H                -3.7395664389        1.4312080083       -2.9915317810
H                -2.1402490723       -0.5906689572       -2.4536238327
H                -1.5441510151       -2.1932479585       -0.5494832598
H                -4.0307743659       -2.9401832366        0.5346403295
H                -2.7783349383       -1.5656298944        2.1848165075
H                -1.4122386863       -2.6304767949        1.8720100815
H                -1.4566976747        0.2805779944        1.5004697286
H                 0.2323518561       -0.6524129590       -0.0214982016
H                 0.7454102012       -1.6500838253        1.3406280301
H                 1.3150431614        0.3877992383        2.6441475929
H                 0.7620243539        1.4130356296        1.3246563448
H                 3.4927138779       -0.6924383533        2.5466326861
H                 5.7534586632       -0.8831411852        1.4944592509
H                 2.0125599567        1.4595625712       -0.8925325089
H                 6.5108062246        1.5585688977       -2.6006177621
H                 5.8040235136       -0.0402554008       -3.0565405016



