%chk=calculation/no_transfer_pubchem_sampling_0_b3lyp/131905209_rwf.chk
%rwf=calculation/no_transfer_pubchem_sampling_0_b3lyp/131905209_rwf.rwf
%nprocshared=14
%mem=3GB
#p b3lyp/6-31g(d) 6D 10F nosymm GFInput td=(50-50,nstate=2) SCF=XQC 

Gaussian input prepared by ASE

0 1
C                -9.1540261444        0.4171693338        0.4668173613
C                -7.7180984802        0.7059914037        0.2064728992
N                -7.2055507117        1.5245689710       -0.6679237155
C                -5.8317128600        1.4226345974       -0.4941429128
C                -4.8997354615        2.2140950960       -1.3580042495
C                -5.5807673038        0.5222903215        0.5094035582
C                -4.3905195406       -0.0787973678        1.1536047821
O                -4.4547932223       -1.1358315497        1.7728147859
N                -3.2241147638        0.6261492472        0.9839270378
C                -1.9659782409        0.2025772810        1.5892831964
C                -0.9588566646       -0.3705709872        0.5777586794
C                -1.5121653426       -1.6181417488       -0.1694195662
C                -0.4362373193       -2.7048821819       -0.3475349175
C                 0.9282961638       -2.1134662673       -0.7093840955
N                 1.3689378881       -1.1717530203        0.3309244806
C                 2.6458909412       -0.6701341049        0.4192893149
O                 2.9787393218        0.1116497710        1.3045936107
C                 3.6441765330       -1.1744772210       -0.6388071395
C                 4.9207876376       -0.3691204318       -0.7237509718
C                 5.2545386666        0.2817362763       -1.9143166763
C                 6.4430183379        1.0226332795       -2.0581513669
C                 7.2731322933        1.0800978867       -0.9588137367
C                 6.9502858348        0.4344342247        0.2334765341
C                 5.7920757612       -0.2956920780        0.3860029667
O                 7.9612509700        0.6291991332        1.1490515198
C                 8.8312149665        1.5957055456        0.5547844340
O                 8.4945626817        1.7025834668       -0.8329902415
C                 0.3648699854       -0.6916192473        1.2872896222
O                -6.7982230329        0.0557177349        0.9534179036
H                -9.4253151519        0.6764133200        1.4964769562
H                -9.3702258988       -0.6477641235        0.3267027195
H                -9.7654462045        1.0019822640       -0.2221904804
H                -5.3598417783        2.3704908760       -2.3375647629
H                -3.9433942261        1.7018579624       -1.5023253425
H                -4.6986835263        3.2075416617       -0.9346167050
H                -3.2777916166        1.5612647309        0.6075329743
H                -2.2188037604       -0.5523980918        2.3392144799
H                -1.5243895408        1.0610161285        2.1110578878
H                -0.7366896216        0.4143636996       -0.1595442453
H                -1.8943536677       -1.3150395642       -1.1514085972
H                -2.3637916939       -2.0373947671        0.3770507925
H                -0.7330466821       -3.4118559013       -1.1305146034
H                -0.3336125579       -3.2899755321        0.5745344219
H                 0.8599012157       -1.6080886063       -1.6860884076
H                 1.6620890232       -2.9199101957       -0.8153935571
H                 3.1653119077       -1.2013184632       -1.6233374581
H                 3.8727740531       -2.2230636321       -0.3922018753
H                 4.5757099343        0.2186330680       -2.7609329625
H                 6.6959918387        1.5223218280       -2.9869874753
H                 5.5487676026       -0.7744755223        1.3266654266
H                 8.6860776325        2.5708564280        1.0426508893
H                 9.8677986589        1.2610446166        0.6517954895
H                 0.2009479593       -1.4390334058        2.0782685034
H                 0.7890182068        0.1927008573        1.7654848348



