%chk=calculation/no_transfer_pubchem_sampling_0_b3lyp/131989682_rwf.chk
%rwf=calculation/no_transfer_pubchem_sampling_0_b3lyp/131989682_rwf.rwf
%nprocshared=14
%mem=3GB
#p b3lyp/6-31g(d) 6D 10F nosymm GFInput td=(50-50,nstate=2) SCF=XQC 

Gaussian input prepared by ASE

0 1
C                 2.4100072068        6.4318557150       -0.0872200614
C                 2.6948611649        5.1467626313        0.1220523973
C                 3.8029725526        4.3479102289       -0.5237607070
C                 4.1112173934        3.2861741739        0.5469189130
C                 4.6417415878        1.9632644710       -0.0021039645
C                 4.6259089013        0.8235977797        1.0230550721
C                 5.2724676599       -0.4758264317        0.5238295298
C                 6.8142444025       -0.3841154984        0.3281115418
C                 7.0690459462       -0.8447939794       -1.1198001872
O                 8.2290626034       -1.6549934749       -1.1949270994
C                 8.7409651713       -1.8089223168       -2.5069830488
C                 5.7291191106       -1.5334336183       -1.5050240735
O                 4.7671372551       -0.7577042271       -0.7830745743
C                 5.6540123218       -3.0325098823       -1.1610079290
C                 6.0136626211       -3.3703124306        0.2931864528
C                 4.9504807562       -2.8672841718        1.2802024376
O                 4.8673695611       -1.4491304637        1.4784300253
C                 3.6247453415       -3.5123276836        0.8307671197
O                 2.5596546098       -3.0924389402        1.6676789660
C                 1.2537347097       -3.6191590371        1.3431948729
C                 1.2903576829       -4.5976584875        0.1588563509
C                 2.0517252201       -4.0476877906       -1.0647759599
C                 3.2849393643       -3.2294311619       -0.6370416599
O                 4.3759646877       -3.5791452413       -1.5088977056
C                 0.3273330044       -2.4103297507        1.1478553159
C                -1.1605149546       -2.7150965188        1.1706931764
O                -1.5908045003       -3.8580935285        1.2188850120
C                -2.1160118150       -1.5237884366        1.1236226409
C                -2.9545886446       -1.4811478665       -0.1638592561
C                -3.7647090085       -0.1829720519       -0.3448709330
C                -2.9436830492        1.0483034400       -0.7641501836
C                -3.1337213653        2.2713456136        0.1367978275
O                -1.9692830507        3.0869860622       -0.0469201991
C                -1.8808650598        4.1401690396        0.9112890709
C                -0.4985531052        4.7813085843        0.7747967693
C                 0.6135207053        3.7236266272        0.7903612102
C                 2.0226601017        4.2245354220        1.1312642752
O                 2.8550232758        3.0553846054        1.1940622558
C                -3.0587505313        5.0978654438        0.7251599564
C                -4.4074336127        4.3464279037        0.8358707064
C                -5.5910829172        5.2907305428        0.6103552000
C                -4.3881490575        3.1117847951       -0.0598429123
C                -5.3592926186        2.7893992185       -0.9187122663
O                -4.7374646690       -0.5111390561       -1.3526960110
C                -4.8830908863       -1.9393016191       -1.4678935074
C                -6.3664680254       -2.3082150852       -1.6599137909
C                -7.3944082745       -1.6267407762       -0.7464235497
O                -7.4397742887       -2.1792757298        0.5687109547
C                -8.8188358345       -1.7894718897       -1.2800276480
O                -9.7573439669       -1.2213346813       -0.3860719653
C                -4.0630506530       -2.5447611335       -0.3051029954
O                -4.7868563202       -2.6442898977        0.9260958533
C                -4.9318661544       -3.9790752284        1.4243203385
H                 2.9604244919        7.0268633355       -0.8117060076
H                 1.6173655105        6.9418430004        0.4540359106
H                 3.4391472684        3.8490852453       -1.4337339025
H                 4.6691240210        4.9577683184       -0.7984483152
H                 4.8244193835        3.6978652976        1.2828063467
H                 5.6589198380        2.1436866256       -0.3789858195
H                 4.0347978002        1.6667037241       -0.8641690325
H                 3.5919706633        0.5978174771        1.2935692392
H                 5.1360959417        1.1168803247        1.9491419387
H                 7.1627642315        0.6404749295        0.4822482873
H                 7.3460835448       -1.0134760963        1.0426730414
H                 7.1962390721        0.0326379433       -1.7723721890
H                 9.6647015785       -2.3864572164       -2.4204862243
H                 8.0468650144       -2.3496097390       -3.1678239389
H                 8.9690930763       -0.8339105546       -2.9644371072
H                 5.4743892205       -1.4172499038       -2.5628501330
H                 6.3568955650       -3.5512176844       -1.8225851679
H                 7.0142810992       -3.0120728372        0.5375581010
H                 6.0451381845       -4.4631994826        0.3785112088
H                 5.1745675741       -3.2489919215        2.2830497552
H                 3.7959499763       -4.5969661235        0.9420029458
H                 0.9012352530       -4.1665590732        2.2272715027
H                 0.2638211476       -4.8709970894       -0.0981365654
H                 1.7731065392       -5.5205951367        0.5003690904
H                 2.3931022019       -4.8820528136       -1.6869780106
H                 1.3964055788       -3.4343969097       -1.6941031856
H                 3.0769923969       -2.1604030360       -0.7189157317
H                 0.5554713182       -1.8795993730        0.2106128319
H                 0.5422571907       -1.6784376733        1.9390841310
H                -2.7950054033       -1.6018886095        1.9802262067
H                -1.5523220486       -0.5889254762        1.2215381305
H                -2.2911009734       -1.5777819286       -1.0361438848
H                -4.2990582387        0.0279842549        0.5950269111
H                -3.1704467854        1.2925712664       -1.8062131980
H                -1.8730225608        0.8159399355       -0.7228318163
H                -3.1269494886        1.9220152521        1.1889915799
H                -1.9492264563        3.6904671839        1.9211693251
H                -0.3768833677        5.4872297216        1.6088952126
H                -0.4498954274        5.3701127653       -0.1490505572
H                 0.6468625250        3.2082918821       -0.1741133005
H                 0.3776269006        2.9549712766        1.5382791905
H                 2.0033576184        4.7103685144        2.1210696541
H                -2.9797400271        5.5655345323       -0.2655470375
H                -3.0178411383        5.8997416683        1.4746850717
H                -4.4709879907        3.9756077306        1.8740913264
H                -5.5939016533        5.6875519780       -0.4116932686
H                -5.5333729345        6.1407744608        1.2996736820
H                -6.5486431214        4.7874495294        0.7808495537
H                -6.2415296148        3.4100904251       -1.0415694620
H                -5.3287233184        1.8844637964       -1.5164482553
H                -4.3590353016       -2.2553927375       -2.3852409651
H                -6.6172510763       -2.0323095101       -2.6932287356
H                -6.4801908897       -3.3982529064       -1.5919632803
H                -7.1663626864       -0.5524551254       -0.6957105875
H                -6.5315754516       -2.1285782476        0.9241948377
H                -8.9291573317       -1.2738499649       -2.2403833513
H                -9.0199817068       -2.8632374437       -1.4432429486
H                -9.4590967579       -1.5098040241        0.4945022646
H                -3.6676331641       -3.5284427496       -0.5737673059
H                -3.9485426375       -4.4380579330        1.5615911834
H                -5.4403702810       -3.8947759340        2.3878042830
H                -5.5489564487       -4.5883713512        0.7520304876



