%chk=./calculation/no_transfer_pubchem_sampling_0_b3lyp/135412081.chk
%nprocshared=7
%mem=6GB
#p b3lyp/6-31g(d) opt SCF=XQC 

Gaussian input prepared by ASE

0 1
C                -3.5808212065       -1.9655516438       -1.4082653973
C                -3.3983533121       -0.5203737648       -1.0611602548
C                -4.4828677637        0.2665710848       -0.6931538305
C                -4.3093458423        1.6035678122       -0.3768990774
C                -3.0505266841        2.1695892332       -0.4111423095
C                -1.9412734086        1.3911684375       -0.7448050879
C                -0.6192606369        2.0177243598       -0.7537699698
N                 0.5010251561        1.5535748307       -0.3623591264
N                 0.6173099407        0.3291666371        0.1788762871
C                 1.8305503790       -0.1139579176        0.6036626530
N                 1.8995952662       -1.2754377722        1.1879000434
N                 3.0906166644       -1.7217563533        1.5854951034
C                 4.1701192685       -1.0367920340        1.4086987040
C                 5.4694796250       -1.5930531833        1.8761036542
C                 4.1891447642        0.2839540965        0.7619264218
O                 5.1557181844        0.9858274006        0.5637661773
N                 2.9123863126        0.6769548068        0.3733522759
C                -2.1333401600        0.0506283774       -1.0804117736
H                -2.8329478443       -2.2910914188       -2.1275553734
H                -3.4749221534       -2.5783897857       -0.5123899090
H                -4.5706638872       -2.1430385914       -1.8214845814
H                -5.4714309849       -0.1679614745       -0.6678062865
H                -5.1632991000        2.2079082093       -0.1091804629
H                -2.9129259491        3.2121879236       -0.1650978887
H                -0.5650227794        3.0402216047       -1.1056151399
H                -0.1877339008       -0.2521353273        0.3998751174
H                 5.9208025974       -0.9118992742        2.5958432894
H                 5.3127808839       -2.5663578565        2.3296788177
H                 6.1553006311       -1.6768855367        1.0345057629
H                 2.7671507577        1.5733424585       -0.0823810220
H                -1.2972448178       -0.5477073384       -1.4162048166



