%chk=calculation/no_transfer_pubchem_sampling_0_b3lyp/135412081_rwf.chk
%rwf=calculation/no_transfer_pubchem_sampling_0_b3lyp/135412081_rwf.rwf
%nprocshared=14
%mem=3GB
#p b3lyp/6-31g(d) 6D 10F nosymm GFInput td=(50-50,nstate=2) SCF=XQC 

Gaussian input prepared by ASE

0 1
C                -3.6607142576       -1.9804089941       -1.4073711247
C                -3.4518092678       -0.5278235172       -1.0471625804
C                -4.5418417292        0.2913828745       -0.7197875369
C                -4.3548766701        1.6369462106       -0.4045532841
C                -3.0748288774        2.1849253048       -0.4012601939
C                -1.9592665957        1.3828521879       -0.6944417232
C                -0.6313979248        2.0238007667       -0.6828368463
N                 0.5266195145        1.5563890680       -0.3619987208
N                 0.6543862291        0.2725297106        0.0660371459
C                 1.8762658651       -0.1511266394        0.5414050234
N                 1.9306925354       -1.3170669028        1.1351951469
N                 3.1557305318       -1.7535508748        1.5682111409
C                 4.2332199041       -1.0345538191        1.4029871834
C                 5.5473977461       -1.5614487698        1.8955690241
C                 4.2313882647        0.2889713395        0.7541065231
O                 5.2003464775        1.0124946622        0.5819748845
N                 2.9497186103        0.6582133371        0.3342906079
C                -2.1699735215        0.0307123152       -1.0294375063
H                -2.7390391677       -2.4391231675       -1.7778597476
H                -3.9927761854       -2.5600973325       -0.5368827654
H                -4.4286154956       -2.0927808108       -2.1814175271
H                -5.5456725508       -0.1269904980       -0.7246784879
H                -5.2113246175        2.2618902341       -0.1669223199
H                -2.9308776937        3.2355429361       -0.1623563287
H                -0.6044600123        3.0771337743       -0.9579196870
H                -0.1440037663       -0.2793878547        0.3707944198
H                 5.9921899107       -0.8745329479        2.6252563313
H                 5.3999879354       -2.5403894554        2.3559017062
H                 6.2651272960       -1.6471965696        1.0710540269
H                 2.8093164012        1.5610655104       -0.1113880860
H                -1.3309088885       -0.5883740780       -1.3345066979



