%chk=calculation/no_transfer_pubchem_sampling_0_b3lyp/136279264_rwf.chk
%rwf=calculation/no_transfer_pubchem_sampling_0_b3lyp/136279264_rwf.rwf
%nprocshared=14
%mem=3GB
#p b3lyp/6-31g(d) 6D 10F nosymm GFInput td=(50-50,nstate=2) SCF=XQC 

Gaussian input prepared by ASE

0 1
C                 3.5970444093       -1.5599740341        0.4968969752
C                 4.2780775326       -0.2214945468        0.5948926065
C                 5.5752787324       -0.0721787613        1.0015161555
S                 6.1024990434        1.5814891735        1.0058804293
C                 4.5635884689        2.1060829804        0.4355468845
C                 3.6876008224        1.0580460854        0.2591093136
C                 2.3021111586        1.2523170045       -0.2077597184
N                 1.3532193730        0.4309933346        0.1615436533
C                 0.0756391095        0.6911367763       -0.2890290660
C                -0.9459338729       -0.3275556354        0.1740567295
N                -2.3154844243        0.1108601012       -0.0540054640
C                -3.4030017608       -0.8791430548        0.1306991046
C                -3.3750328983       -1.5576821754        1.5184018493
C                -4.7167058817       -0.0958475039       -0.0302043408
C                -3.3147013332       -1.9425562577       -0.9783036940
C                -0.2473109315        1.7580751264       -1.0790381690
C                 0.7743764917        2.6854163717       -1.5106960191
O                 0.6520929910        3.6697743822       -2.2274394490
N                 2.0537405578        2.3305918791       -1.0121822514
H                 2.7482463704       -1.6222167260        1.1828701701
H                 3.1975898415       -1.7317110897       -0.5087392125
H                 4.3032801425       -2.3636239870        0.7279192735
H                 6.2615664225       -0.8554631671        1.2952213072
H                 4.3685292704        3.1635397131        0.3141567874
H                -0.7040150484       -0.5728769062        1.2227312462
H                -0.7660635041       -1.2494597071       -0.3934254147
H                -2.5037773694        0.9115896600        0.5483928344
H                -2.4593549726       -2.1413681067        1.6652472299
H                -3.4317813682       -0.8102612426        2.3199424493
H                -4.2239981715       -2.2410281318        1.6384494462
H                -4.8146305634        0.6726692998        0.7478800782
H                -4.7487153868        0.4014195669       -1.0050754105
H                -5.5820442314       -0.7622599914        0.0521742919
H                -3.2946767875       -1.4638285291       -1.9626387818
H                -2.4192957877       -2.5668606640       -0.8823590903
H                -4.1814018091       -2.6113430491       -0.9324520621
H                -1.2628725651        1.9128552031       -1.4193814075
H                 2.8163179300        2.9118786090       -1.3411322647



