%chk=./calculation/no_transfer_pubchem_sampling_0_b3lyp/136279264.chk
%nprocshared=7
%mem=6GB
#p b3lyp/6-31g(d) opt SCF=XQC 

Gaussian input prepared by ASE

0 1
C                 3.3842628333       -1.4664061982        0.6836079506
C                 4.1754200953       -0.2073562685        0.6259252242
C                 5.4853694205       -0.1227729213        0.9694635659
S                 6.1274889916        1.4647327068        0.7996612283
C                 4.6205220938        2.0405257516        0.2398562146
C                 3.6633468395        1.0603353242        0.1917847756
C                 2.2900149437        1.2836661533       -0.2399806553
N                 1.3684471599        0.4325551536        0.0867632287
C                 0.0933656983        0.6676855230       -0.3240869538
C                -0.8914550392       -0.3856967398        0.0982946858
N                -2.2532291254        0.0761472509       -0.0413823768
C                -3.3300377189       -0.8960076990        0.1275438783
C                -3.2935437666       -1.6145820199        1.4868519318
C                -4.6371375550       -0.1051455800        0.0094799619
C                -3.2640424911       -1.9225143842       -1.0075382941
C                -0.2574966619        1.7583786723       -1.0559919059
C                 0.7340140080        2.7275586523       -1.4361245451
O                 0.5782453154        3.7430030625       -2.0821040550
N                 2.0162141575        2.3936487662       -0.9731781055
H                 2.5874103875       -1.3676807746        1.4165094221
H                 2.9152204463       -1.6596288564       -0.2782030397
H                 4.0241398840       -2.3034242101        0.9513383653
H                 6.1244765000       -0.9085560071        1.3200852030
H                 4.5251787101        3.0842738260        0.0113275672
H                -0.6183211417       -0.6996403161        1.1206161017
H                -0.7436978113       -1.2508712868       -0.5548711211
H                -2.4068322677        0.8607122191        0.5842797461
H                -2.4058950700       -2.2367643404        1.5750615238
H                -3.2927784674       -0.8903552485        2.3000157221
H                -4.1673915698       -2.2516415290        1.5954727706
H                -4.7263616259        0.6121385962        0.8229054155
H                -4.6546783292        0.4375034520       -0.9316728587
H                -5.4934411649       -0.7730943843        0.0461578723
H                -3.1413410790       -1.4091172728       -1.9572296912
H                -2.4351180636       -2.6124815523       -0.8718426065
H                -4.1822613723       -2.5028568180       -1.0376789808
H                -1.2737790057        1.9102030296       -1.3762471165
H                 2.7557018418        3.0335282676       -1.2352030495



