%chk=calculation/no_transfer_pubchem_sampling_0_b3lyp/136706656_rwf.chk
%rwf=calculation/no_transfer_pubchem_sampling_0_b3lyp/136706656_rwf.rwf
%nprocshared=14
%mem=3GB
#p b3lyp/6-31g(d) 6D 10F nosymm GFInput td=(50-50,nstate=2) SCF=XQC 

Gaussian input prepared by ASE

0 1
C                 5.9359488882        0.1360615689       -0.2602502941
C                 4.6546781879        0.8721500726        0.0178604832
N                 3.5148200524        0.2398030905        0.0057195251
C                 2.3716609100        0.9781820056        0.2628998243
C                 1.0826652510        0.1888445612        0.2339097316
C                 1.0642177319       -0.9038899403        1.3275900067
C                -0.1954099408       -1.7760935748        1.2269703230
C                -0.3706101367       -2.3294639380       -0.1945904961
N                -0.3668349426       -1.2439958768       -1.1756274905
C                -1.4164306997       -0.7977659532       -1.9401775470
O                -1.3075320374        0.1858954906       -2.6736280331
C                -2.7648519057       -1.5236310878       -1.9022223661
C                -3.9123942368       -0.5075175987       -1.6915375347
C                -3.8842704223        0.1301843078       -0.3199473569
C                -4.5677369602       -0.4217051844        0.7686886663
C                -4.4661827631        0.1795909254        2.0224318764
C                -3.6733882214        1.3205671392        2.1491073099
N                -3.0120391936        1.8747081206        1.1249367510
C                -3.1289652861        1.2881426117       -0.0728816737
C                 0.8680982739       -0.4547156833       -1.1577225415
C                 2.3923985338        2.3195697381        0.5257731338
C                 3.6401418278        3.0520021639        0.5553234087
O                 3.8190756949        4.2403955243        0.7804955074
N                 4.7470519420        2.2076322644        0.2774604356
H                 6.4431025346        0.5487853087       -1.1408366497
H                 5.7094689525       -0.9150990175       -0.4411906235
H                 6.6266080136        0.2125263068        0.5883417801
H                 0.2498767841        0.8801912193        0.4130084723
H                 1.1260691513       -0.4387267314        2.3187864649
H                 1.9598144474       -1.5276864267        1.2101213351
H                -0.1353591513       -2.6108985470        1.9369930163
H                -1.0842322506       -1.1878870919        1.4896841070
H                 0.4656995746       -3.0034605651       -0.4333653450
H                -1.2839874158       -2.9165296987       -0.2760959744
H                -2.8916803730       -2.0008174999       -2.8821417592
H                -2.8307736125       -2.3100439263       -1.1481745687
H                -4.8675076231       -1.0251977707       -1.8400388961
H                -3.8253143068        0.2593335786       -2.4663137561
H                -5.1789098273       -1.3122452753        0.6333239047
H                -4.9917291821       -0.2239298749        2.8833356188
H                -3.5664262127        1.8154346254        3.1133048196
H                -2.5850119957        1.7553091486       -0.8917888821
H                 0.7854849314        0.3041310068       -1.9346280788
H                 1.7173602560       -1.1096093377       -1.3884754278
H                 1.4842694897        2.8787962934        0.7201695929
H                 5.6490702683        2.6726785277        0.2813962003



