%chk=./calculation/no_transfer_pubchem_sampling_0_b3lyp/136706656.chk
%nprocshared=7
%mem=6GB
#p b3lyp/6-31g(d) opt SCF=XQC 

Gaussian input prepared by ASE

0 1
C                 5.6688810794        0.1330953609       -0.1243106162
C                 4.4089757792        0.8996354536        0.1040413561
N                 3.2731718114        0.2916840408        0.0736475294
C                 2.1388303472        1.0262015533        0.2782346079
C                 0.8605963643        0.2428696887        0.2236002831
C                 0.8374016732       -0.8155315212        1.3326670405
C                -0.4184368910       -1.6708638753        1.2082858198
C                -0.5015872788       -2.2793892718       -0.1927871017
N                -0.4758098734       -1.2408635459       -1.1950798790
C                -1.4347357381       -0.8811469148       -2.0801563651
O                -1.2338672885       -0.0061118730       -2.9050439018
C                -2.8008888390       -1.5499684769       -2.0285305808
C                -3.8441295051       -0.4689826840       -1.6900447247
C                -3.5702838425        0.1017685271       -0.3314075283
C                -4.1247919225       -0.4465033439        0.8189601625
C                -3.7896914620        0.0834831509        2.0547539501
C                -2.8924634105        1.1397335218        2.0942750886
N                -2.3569662782        1.6720792828        1.0083954247
C                -2.6952485064        1.1732063242       -0.1671043263
C                 0.7428173436       -0.4589012980       -1.1384693526
C                 2.1681428967        2.3621103069        0.5197132061
C                 3.4204792230        3.0717154773        0.5712652269
O                 3.6053513749        4.2503818668        0.7844551857
N                 4.5197613569        2.2275572541        0.3385566594
H                 6.1921331099        0.5223346103       -0.9962783207
H                 5.4286253184       -0.9122641775       -0.2878618946
H                 6.3270936427        0.2219500210        0.7384609593
H                 0.0133861958        0.9213719771        0.3533760844
H                 0.8631789465       -0.3266221603        2.3079570116
H                 1.7280919107       -1.4398602625        1.2383023600
H                -0.4064710409       -2.4708515193        1.9503930201
H                -1.3003999352       -1.0538111222        1.3860520355
H                 0.3721675974       -2.9241657627       -0.3553262860
H                -1.3927219032       -2.8971002091       -0.2833621128
H                -3.0111448048       -1.9424491434       -3.0252182495
H                -2.8683929528       -2.3626141204       -1.3100923156
H                -4.8433550774       -0.9081788139       -1.7223948433
H                -3.7755347911        0.3177577911       -2.4426735000
H                -4.8137846912       -1.2775047750        0.7471188231
H                -4.2093512567       -0.3178241476        2.9645559749
H                -2.5841568963        1.5814057595        3.0327643748
H                -2.2393939779        1.6459795210       -1.0273904078
H                 0.7067939978        0.2739276823       -1.9455669242
H                 1.6100389346       -1.1114542590       -1.2802379790
H                 1.2669899441        2.9305870711        0.6801795943
H                 5.4307023158        2.6721320348        0.3553224311



