%chk=calculation/no_transfer_pubchem_sampling_0_b3lyp/137241535_rwf.chk
%rwf=calculation/no_transfer_pubchem_sampling_0_b3lyp/137241535_rwf.rwf
%nprocshared=14
%mem=3GB
#p b3lyp/6-31g(d) 6D 10F nosymm GFInput td=(50-50,nstate=2) SCF=XQC 

Gaussian input prepared by ASE

0 1
C                 5.3914674730       -0.2641720090        0.3055566141
C                 5.0759371130        0.0209170052       -1.1649197308
C                 3.8170515567        0.8728834209       -1.3774704815
N                 2.5979851553        0.2189684316       -0.9206061681
N                 2.1980935548       -0.9180678391       -1.5656967020
C                 1.0907292742       -1.2603764542       -0.9254227198
C                 0.7447307917       -0.3788308751        0.1211118385
C                 1.7587216248        0.5696453681        0.1031943174
C                 1.9872012382        1.7579646689        0.9856422179
C                -0.5067122867       -0.6111904905        0.9281267090
C                -1.7660128485        0.0881878835        0.3330435981
C                -3.0512227542       -0.2569424850        1.1418726594
C                -4.0922253608        0.8841707231        1.1535765819
C                -4.1807737443        1.6251185340       -0.1948490827
N                -4.6562990665        0.8025515895       -1.3230498931
C                -2.7997144505        2.2470973173       -0.5438832734
C                -1.6184061857        1.6136290119        0.2209247892
C                -0.6868289993       -2.1520084763        0.9976791657
C                -0.6315478279       -2.8696188311       -0.3561016006
O                -1.3365288772       -3.8257412285       -0.6382282249
N                 0.3263502932       -2.3866287824       -1.2261042505
H                 4.5724745556       -0.8091048945        0.7877233982
H                 6.2960528156       -0.8745992857        0.3997106794
H                 5.5586114894        0.6639259834        0.8672952616
H                 4.9465453756       -0.9198284876       -1.7111919828
H                 5.9159422220        0.5500376347       -1.6344370171
H                 3.8987339879        1.8235055506       -0.8418389931
H                 3.6955772106        1.1005577344       -2.4424300952
H                 2.9621642312        1.7173544893        1.4856179437
H                 1.9375023925        2.7036297589        0.4313767081
H                 1.2176581363        1.7927865303        1.7609542491
H                -0.3795943907       -0.2402597567        1.9553901354
H                -1.8824609753       -0.2967325721       -0.6921972289
H                -3.5048414605       -1.1692734402        0.7381097547
H                -2.7815059400       -0.4896994024        2.1810869740
H                -5.0771839388        0.4851452620        1.4306031400
H                -3.8315659641        1.6134149388        1.9335060949
H                -4.9158587485        2.4331665356       -0.0916715010
H                -4.0142216835        0.0273334114       -1.4874013946
H                -5.5508997317        0.3754978962       -1.0805785429
H                -2.8157573174        3.3257405875       -0.3466811006
H                -2.6481304935        2.1351614082       -1.6240469813
H                -1.5508288645        2.0415940995        1.2325686542
H                -0.6829056413        1.8692553487       -0.2874729111
H                -1.6259966131       -2.4431455210        1.4699817203
H                 0.1266794477       -2.5730817562        1.6053153952
H                 0.4718132250       -2.8880695359       -2.0936887238



