%chk=./calculation/no_transfer_pubchem_sampling_0_b3lyp/142583504.chk
%nprocshared=7
%mem=6GB
#p b3lyp/6-31g(d) opt SCF=XQC 

Gaussian input prepared by ASE

0 1
C                 4.8025272383        0.7332982873       -0.1582104946
C                 4.1133195247       -0.2737608620        0.7642017409
C                 2.6672783307       -0.4509144069        0.3899486300
C                 2.2514030496       -1.5432298109       -0.2406305450
C                 0.8448089800       -1.7998563370       -0.6992610348
C                 0.3316173726       -0.6981126355       -1.6416728404
N                -0.0521602308        0.4979624429       -0.9341996543
C                -1.2783743995        0.6442611959       -0.3650818657
C                -2.3427765481       -0.2525160466       -0.5819335902
C                -3.5769124705        0.0082610079       -0.0179764324
C                -4.6726141914       -0.9728398197       -0.2794517256
N                -5.6566046077       -1.0070045555        0.6521862267
O                -4.6853477008       -1.6964198598       -1.2537412050
C                -3.7455230650        1.1655269919        0.7484004442
C                -2.6400241875        1.9774437191        0.9146943962
N                -1.4513345807        1.7318016551        0.3996692964
C                 1.0369440302        1.3173808034       -0.4528267604
C                 1.7497748701        0.6874789786        0.7532203237
H                 4.7630830096        0.3858706720       -1.1882842171
H                 5.8453469112        0.8547655228        0.1254647574
H                 4.3163026336        1.7044921601       -0.1037753437
H                 4.6328434513       -1.2314153917        0.6990299650
H                 4.1819221285        0.0792663564        1.7963039624
H                 2.9679235225       -2.3216952345       -0.4654857728
H                 0.8016118731       -2.7585267380       -1.2166919422
H                 0.1717633618       -1.8527407985        0.1625435394
H                 1.1250468710       -0.4275673768       -2.3454390179
H                -0.5160653625       -1.0629418457       -2.2230475131
H                -2.2389658475       -1.1492158572       -1.1692179118
H                -5.6052540257       -0.4810707729        1.5051388495
H                -6.4018250524       -1.6731450174        0.5359877733
H                -4.6957890357        1.4405062894        1.1776196460
H                -2.7001647935        2.8839640358        1.5047280252
H                 0.6111093149        2.2774026851       -0.1591024457
H                 1.7453715013        1.4666826613       -1.2722254928
H                 2.3196804808        1.4635474655        1.2645840765
H                 0.9800576433        0.3330604360        1.4453151524



