%chk=calculation/no_transfer_pubchem_sampling_0_b3lyp/142900628_rwf.chk
%rwf=calculation/no_transfer_pubchem_sampling_0_b3lyp/142900628_rwf.rwf
%nprocshared=14
%mem=3GB
#p b3lyp/6-31g(d) 6D 10F nosymm GFInput td=(50-50,nstate=2) SCF=XQC 

Gaussian input prepared by ASE

0 1
C                -0.7776157550        1.8974020838        3.6855642151
C                -0.5993048523        2.2052268600        2.2200805478
N                 0.6526486655        2.1633898743        1.7485506979
C                 0.8182777516        2.5290721388        0.4631530022
N                 2.1095158004        2.5726764393       -0.0076750966
C                 3.2454088665        2.1408467486        0.7859615468
C                 3.3759223904        0.6054282043        0.9297304211
N                 4.2805322451        0.2490255549        2.0138818799
C                 5.6307544947        0.3491152568        1.8228346120
O                 6.1556424636        0.9536263515        0.9018693770
O                 6.2890567773       -0.3040518732        2.8143365839
C                 7.7271885875       -0.3657285668        2.7086678630
C                 8.1913858284       -1.7728230211        2.4114274937
C                 9.2798127381       -2.3093727236        3.1069290814
C                 9.7545682147       -3.5885783011        2.8107848815
C                 9.1335665594       -4.3501381146        1.8208367993
C                 8.0395203454       -3.8242816563        1.1288313857
C                 7.5717693449       -2.5427889793        1.4175395229
C                 3.7825875904       -0.1588142483       -0.3506624857
O                 4.2287035568       -1.2864632315       -0.3179573219
O                 3.5425854866        0.5534599348       -1.4647030192
C                 3.8998746849        0.0367036716       -2.8084594503
C                 3.0693215647       -1.2112676497       -3.1210930939
C                 5.4075130077       -0.2237968180       -2.8776522595
C                 3.5078507859        1.1973166524       -3.7258713061
C                -0.2577970259        2.9118043379       -0.3731028739
C                 0.0015476045        3.5292836695       -1.7234744332
C                -1.5339939994        2.7853063310        0.2052313196
N                -2.6973445562        3.0484820751       -0.5199738425
C                -2.9383684976        2.3634755883       -1.7959955992
C                -3.7092767377        1.0446093607       -1.6095336305
C                -5.0363963080        1.2735882790       -0.8550219854
C                -5.8154062404       -0.0138478484       -0.6463913626
N                -6.9766774209       -0.0945200745       -1.1869514009
C                -7.7933038555       -1.2912526345       -0.9715558723
N                -8.8479493411       -0.9187005963       -0.0248057040
C                -9.9916278593       -1.8351609518       -0.0730867551
C                -9.4897462816       -3.3015717282       -0.0506390830
C                -8.0561878507       -3.3722989595        0.4875845291
C                -7.0932297375       -2.5829285763       -0.4375035799
C                -5.7971724712       -2.2823294907        0.2602186341
C                -5.2018837121       -1.0885004338        0.1619836616
C                -4.7623990236        2.0210322988        0.4684197889
C                -3.9438775315        3.2953475447        0.2155568089
N                -1.6957613195        2.4694748587        1.5124599565
H                -1.8382678007        1.8596650704        3.9408729740
H                -0.3048841678        0.9418067100        3.9375447293
H                -0.2888684985        2.6659587516        4.2962363208
H                 2.2300407850        2.4941057965       -1.0060387803
H                 3.1321154765        2.5440915782        1.7931138806
H                 4.1559710276        2.5493983918        0.3445493532
H                 2.3874587881        0.2339786771        1.2203122579
H                 3.9828393680       -0.4616991089        2.6675516326
H                 8.1204165155       -0.0222690012        3.6698381752
H                 8.0378498016        0.3339622023        1.9275620266
H                 9.7597759915       -1.7231496285        3.8879293231
H                10.6011938681       -3.9914114606        3.3605869222
H                 9.4956975067       -5.3490604744        1.5923204369
H                 7.5477477999       -4.4140703474        0.3596630641
H                 6.7172564918       -2.1470093254        0.8751399012
H                 3.3331821842       -2.0367061107       -2.4584563842
H                 3.2514666029       -1.5198825300       -4.1566948817
H                 2.0000018707       -0.9973682283       -3.0145294986
H                 5.6908903316       -0.4377711636       -3.9144346359
H                 5.6940113007       -1.0706963311       -2.2532756680
H                 5.9618671827        0.6588142512       -2.5428845967
H                 3.7242532855        0.9409634870       -4.7680872119
H                 2.4371348418        1.4156712422       -3.6441825179
H                 4.0705687440        2.1013098631       -3.4706320749
H                 0.8888804256        4.1729933852       -1.6789777851
H                -0.8437420306        4.1528567023       -2.0279039504
H                 0.1759619198        2.7964759257       -2.5265809221
H                -3.5158072777        3.0381182448       -2.4444079196
H                -1.9898004297        2.1672957981       -2.2954966187
H                -3.9085484346        0.5992509512       -2.5930940136
H                -3.0733351794        0.3392384031       -1.0582120965
H                -5.6784042702        1.9066371426       -1.4813191251
H                -8.2173216724       -1.5239886344       -1.9662391547
H                -9.1350834341        0.0370444852       -0.2264254532
H               -10.6304874421       -1.6838201621       -0.9632004062
H               -10.6143390226       -1.6327500173        0.8068726192
H                -9.5089206919       -3.7205493768       -1.0656001379
H               -10.1638139152       -3.9217541753        0.5510074898
H                -8.0229653120       -2.9438039545        1.4954351024
H                -7.7199355818       -4.4138862616        0.5656276408
H                -6.8644635160       -3.2242335589       -1.3043215990
H                -5.3497212528       -3.0791621798        0.8540876946
H                -4.2616683790       -0.8881325904        0.6673182783
H                -5.7129647448        2.2832782047        0.9501747799
H                -4.2018354127        1.3900820168        1.1669713688
H                -4.5355930401        3.9986597465       -0.3889743159
H                -3.6960455809        3.7819949563        1.1589293222



