%chk=./calculation/no_transfer_pubchem_sampling_0_b3lyp/142900628.chk
%nprocshared=7
%mem=6GB
#p b3lyp/6-31g(d) opt SCF=XQC 

Gaussian input prepared by ASE

0 1
C                -1.0658453555        2.1747636850        3.5173342498
C                -0.7585494737        2.4331511315        2.0760411497
N                 0.5133925074        2.3999222383        1.7129965900
C                 0.7941547725        2.7151800088        0.4439942477
N                 2.1143527172        2.7900201328        0.1042418001
C                 3.1245209859        2.3250844141        1.0150943542
C                 3.0950161293        0.7986059002        1.2339984726
N                 4.0352961395        0.4117841368        2.2660118168
C                 5.3475146783        0.3129195219        1.9378497849
O                 5.8280948682        0.7631058372        0.9246928272
O                 6.0372023045       -0.3077552831        2.9122170850
C                 7.4131983567       -0.5600770353        2.6475100407
C                 7.6504741201       -1.9393171464        2.0840131702
C                 8.8255541111       -2.6115676217        2.3967426178
C                 9.0798475444       -3.8637294008        1.8673513331
C                 8.1581372645       -4.4607050529        1.0238379497
C                 6.9847959662       -3.7970554796        0.7117808841
C                 6.7306454554       -2.5413096740        1.2359148270
C                 3.4428563192       -0.0256317301       -0.0190951737
O                 3.6742147932       -1.2056478905        0.0604937774
O                 3.4320986597        0.6972419841       -1.1201760038
C                 3.8721273261        0.1408621083       -2.3913781009
C                 2.8876966785       -0.9301906273       -2.8565343533
C                 5.2869916043       -0.4166570883       -2.2529521005
C                 3.8578163066        1.3422191512       -3.3372706453
C                -0.2086886493        3.0284732112       -0.4893880664
C                 0.1540316489        3.5423270655       -1.8514770080
C                -1.5212391637        2.9117767382       -0.0218460317
N                -2.6154749028        3.1427905086       -0.8366288094
C                -2.7841993043        2.3303381600       -2.0256457840
C                -3.4402351890        0.9849991129       -1.6933584381
C                -4.7961240838        1.2124439658       -1.0188743826
C                -5.4636979548       -0.0893998760       -0.6682422987
N                -6.6019746456       -0.3165858568       -1.1832196189
C                -7.3313767233       -1.5158264662       -0.8826494263
N                -8.4071028879       -1.1622731078        0.0293892504
C                -9.4696316296       -2.1500431974        0.0321454673
C                -8.8567156504       -3.5541382376        0.1564114233
C                -7.4507652389       -3.4416587991        0.7357590639
C                -6.5405420431       -2.6902846503       -0.2493451698
C                -5.3031225989       -2.2208760333        0.4462589011
C                -4.7911246976       -1.0106590920        0.2399998612
C                -4.6002982963        2.0919260060        0.2198789758
C                -3.8837546977        3.3838235685       -0.1732545666
N                -1.7760501735        2.6524856998        1.2694984663
H                -2.0951504769        1.8459831900        3.6238772437
H                -0.3823647151        1.4310793012        3.9172775242
H                -0.9334464939        3.0969603283        4.0810633313
H                 2.3320074078        2.6606925797       -0.8710256077
H                 2.9480633433        2.7959594203        1.9848623194
H                 4.1038667425        2.6145788726        0.6336364507
H                 2.0869255449        0.5229113120        1.5583113129
H                 3.7179451434       -0.1068086711        3.0680207272
H                 7.9322464131       -0.4393412875        3.6017183867
H                 7.7771221318        0.1939267925        1.9362724204
H                 9.5451804770       -2.1488351312        3.0572773061
H                 9.9973383077       -4.3761763658        2.1173752058
H                 8.3544764087       -5.4402090435        0.6131632236
H                 6.2594999346       -4.2554359005        0.0560417406
H                 5.8104889934       -2.0376492103        0.9801319010
H                 2.8729667927       -1.7574159678       -2.1521384327
H                 3.1895497602       -1.3036540887       -3.8310324555
H                 1.8839472701       -0.5159852920       -2.9323938535
H                 5.7184288922       -0.5749796917       -3.2373844115
H                 5.2774144948       -1.3602587863       -1.7151421186
H                 5.9046351716        0.2845875062       -1.6961113905
H                 4.1673770396        1.0355083949       -4.3318423119
H                 2.8575822340        1.7651028875       -3.3980312574
H                 4.5398503308        2.1065665501       -2.9743943754
H                 0.9962245335        4.2287559640       -1.7683239313
H                -0.6849965689        4.0837865149       -2.2807064439
H                 0.4391778770        2.7365526791       -2.5320603302
H                -3.4173412242        2.8860571303       -2.7259423656
H                -1.8185751354        2.1511878475       -2.4946739147
H                -3.5702055055        0.4043493885       -2.6087964583
H                -2.7799268922        0.4282947862       -1.0246800111
H                -5.4569409846        1.7314758814       -1.7217640168
H                -7.7431542600       -1.8460886337       -1.8591500945
H                -8.7594519481       -0.2392288686       -0.2003527864
H               -10.0998200081       -2.1016764777       -0.8731233316
H               -10.1039569447       -1.9325115884        0.8963406871
H                -8.7995442477       -4.0294438888       -0.8253434016
H                -9.4827297930       -4.1803446695        0.7928788555
H                -7.4989785727       -2.8840165699        1.6719366368
H                -7.0375716563       -4.4312221065        0.9391107647
H                -6.2386097178       -3.3814900710       -1.0479694321
H                -4.8398221769       -2.9257435238        1.1245678503
H                -3.8950438498       -0.6826206726        0.7435077815
H                -5.5669714448        2.3250296084        0.6681121265
H                -3.9871643956        1.5797929925        0.9611026046
H                -4.5048037588        3.9586588930       -0.8689145554
H                -3.6892623714        3.9854377452        0.7145884780



