%chk=calculation/no_transfer_pubchem_sampling_0_b3lyp/145452207_rwf.chk
%rwf=calculation/no_transfer_pubchem_sampling_0_b3lyp/145452207_rwf.rwf
%nprocshared=14
%mem=3GB
#p b3lyp/6-31g(d) 6D 10F nosymm GFInput td=(50-50,nstate=2) SCF=XQC 

Gaussian input prepared by ASE

0 1
C                 9.8647635215       -1.3768611079        1.9065684203
C                 8.6338095187       -1.2466282545        1.0773013071
C                 7.3042870853       -1.3015107943        1.3592793982
C                 6.6890621671       -1.0943249226        0.0881043957
O                 5.3632805718       -1.0713741519       -0.1051384345
C                 4.9186762425       -0.8508747052       -1.4615291683
C                 3.3981315854       -0.8348261099       -1.4578611780
C                 2.7896230202        0.3230548222       -0.6561693520
C                 1.2557224728        0.3182714314       -0.6693966956
C                 0.6642085644        1.4957814631        0.1160417417
N                -0.7889329605        1.4273629589        0.2632022248
C                -1.3251591596        2.2962031138        1.3110348244
C                -2.4416828297        1.6024571184        2.1144022165
C                -3.5552806441        0.9195174568        1.3564418024
C                -3.7676480577        0.9865554629        0.0259775105
C                -2.9801997789        1.8684904306       -0.9206179284
C                -1.4789190826        1.5514257555       -1.0266449284
N                -4.7479807206        0.1901909371       -0.6296426619
C                -5.6670003212       -0.3397646034        0.0783785125
O                -6.6297360961       -1.1139208843       -0.4799611743
C                -6.5502487331       -1.2838362409       -1.8893694434
C                -7.7187076928       -2.1549965906       -2.3037408141
F                -7.6792756625       -3.3659952446       -1.7178684451
F                -8.9024321926       -1.5896378920       -2.0026229242
F                -7.6748517899       -2.3393664972       -3.6423197166
C                -5.8234750677       -0.1580426638        1.5634043065
C                -4.4300142276       -0.0035378132        2.1848370139
N                 7.5628916611       -0.9283921714       -0.8828368343
O                 8.8157231733       -1.0262003291       -0.2448149226
H                10.4737705473       -0.4675153598        1.8479878950
H                 9.5998328251       -1.5518083019        2.9521995339
H                10.4839019549       -2.2117071100        1.5588345373
H                 6.8183746477       -1.4625555459        2.3090644011
H                 5.3146790746       -1.6514754388       -2.0970712557
H                 5.3355810358        0.0979387787       -1.8212269288
H                 3.0672052535       -0.7787333878       -2.5042956901
H                 3.0349357836       -1.7942021778       -1.0660497839
H                 3.1515886512        0.2707957954        0.3784578090
H                 3.1583848171        1.2757929127       -1.0646934388
H                 0.8771892135       -0.6150086125       -0.2313312666
H                 0.9063651743        0.3409140528       -1.7100699251
H                 0.9862072425        2.4455713333       -0.3622318533
H                 1.1005504030        1.4879746900        1.1224180829
H                -0.5175521601        2.5271250799        2.0139509563
H                -1.6659723895        3.2714197943        0.9247541773
H                -1.9632962251        0.8310797310        2.7387676057
H                -2.8690807314        2.3275706169        2.8273204080
H                -3.1166676262        2.9209538685       -0.6462562126
H                -3.4125218656        1.7571239790       -1.9196011931
H                -1.3562336814        0.6101132836       -1.5754045033
H                -1.0150320586        2.3445384341       -1.6489723635
H                -6.6105346346       -0.3221086660       -2.4069805081
H                -5.6137870755       -1.7708453775       -2.1761735874
H                -6.4155613689        0.7546528426        1.7298038765
H                -6.3844967856       -0.9916781081        1.9943664990
H                -4.5230616552        0.3734230121        3.2103663704
H                -3.9434029333       -0.9899240919        2.2676283051



