%chk=calculation/no_transfer_pubchem_sampling_0_b3lyp/146429979_rwf.chk
%rwf=calculation/no_transfer_pubchem_sampling_0_b3lyp/146429979_rwf.rwf
%nprocshared=14
%mem=3GB
#p b3lyp/6-31g(d) 6D 10F nosymm GFInput td=(50-50,nstate=2) SCF=XQC 

Gaussian input prepared by ASE

0 1
C                -3.3838511390       -2.4791589993       -0.7331312483
N                -3.0979114658       -1.0498111571       -0.8994831228
C                -3.3982840597       -0.1744905208        0.2494034880
N                -4.8325000679       -0.3238802999        0.6454774817
C                -5.2124233628        0.2103449502        1.9483867240
C                -5.7843036644        0.1192227213       -0.3688421066
C                -3.0262589658        1.2819105195       -0.1794815097
C                -1.5965640988        1.7106068125        0.2163685991
C                -0.5618260703        0.5674829822        0.1191680558
C                -0.9847093365       -0.5857638238        1.0647849199
C                -2.4840446932       -0.5757823812        1.4293744644
C                 0.8727554356        1.0935355925        0.3907121768
N                 1.3303005289        1.4805438223       -0.9368825953
C                 2.6895903634        1.9421767913       -1.1903341615
C                 3.7799042601        0.9436361027       -0.8405124107
C                 3.9517575370       -0.2229312878       -1.6081724987
C                 4.9392712162       -1.1452806872       -1.2934077261
C                 5.7896789746       -0.9257965214       -0.1976188350
O                 6.7304057641       -1.8927100311        0.0246221697
C                 7.6249340746       -1.7182151583        1.1097506735
C                 5.6350663446        0.2280273517        0.5760057597
C                 4.6314301308        1.1462015844        0.2453730284
C                 0.6495332569        0.7375528870       -1.9046620301
O                 0.9391948509        0.6651644803       -3.0930441613
N                -0.3850033186        0.1062589079       -1.2582033950
H                -3.2757411850       -2.9673338358       -1.7066885857
H                -4.3873710133       -2.6821765677       -0.3358359323
H                -2.6499699204       -2.9327111261       -0.0592486622
H                -3.6033812480       -0.7048188788       -1.7119931245
H                -4.6594700730       -0.2775525633        2.7533893992
H                -5.0764649147        1.3054515905        2.0475173656
H                -6.2751176209        0.0006563186        2.1125969707
H                -6.7883596010       -0.2109978234       -0.0811159905
H                -5.8222056920        1.2157069854       -0.5078652410
H                -5.5630227179       -0.3369866946       -1.3380382153
H                -3.1568812555        1.3821683001       -1.2638192921
H                -3.7337724791        1.9845405696        0.2763316419
H                -1.2699679515        2.5517276277       -0.4056419685
H                -1.5991362864        2.0721570640        1.2541574662
H                -0.4110883658       -0.5191166800        1.9988606228
H                -0.7012653870       -1.5307160868        0.5920853421
H                -2.6390300801        0.1428186708        2.2400008752
H                -2.7838843931       -1.5523282196        1.8248857032
H                 0.8733976616        1.9457575730        1.0812719384
H                 1.5062981472        0.3010393628        0.8201886801
H                 2.7215112814        2.1825678673       -2.2570720364
H                 2.8468717488        2.8732301238       -0.6313991154
H                 3.2998897790       -0.3955542332       -2.4604908038
H                 5.0801115136       -2.0446860198       -1.8851877505
H                 8.2826298562       -2.5895813758        1.1002196830
H                 8.2286777735       -0.8078206164        0.9947936870
H                 7.0938776601       -1.6765522308        2.0704835195
H                 6.2788127767        0.4240244431        1.4261033876
H                 4.5225356222        2.0435572840        0.8518569549
H                -1.1546291304       -0.3353174666       -1.7447022586



