%chk=calculation/no_transfer_pubchem_sampling_0_b3lyp/153758427_rwf.chk
%rwf=calculation/no_transfer_pubchem_sampling_0_b3lyp/153758427_rwf.rwf
%nprocshared=14
%mem=3GB
#p b3lyp/6-31g(d) 6D 10F nosymm GFInput td=(50-50,nstate=2) SCF=XQC 

Gaussian input prepared by ASE

0 1
C                -5.8119858789        2.2387222631       -1.9358188330
C                -4.7430944411        1.3146273130       -1.3444860910
C                -4.3191374676        1.7290499669        0.0712215908
C                -3.2618136196        0.8116789809        0.6961458328
C                -1.8637867928        0.9867276159        0.0991017799
O                -1.6248238474        1.8630172723       -0.7102048744
C                -0.7705765100        0.0477850511        0.5622597974
C                -0.9749614646       -0.9203393948        1.5520688856
C                 0.0849489719       -1.7398321084        1.9313584250
C                 1.3253739690       -1.5791324888        1.3119327594
O                 2.4170042372       -2.3222767901        1.6041482285
C                 2.3190350521       -3.3360523694        2.6008689905
C                 1.4612974171       -0.5729796970        0.3083133837
C                 2.6884436319       -0.2746187154       -0.4394384396
C                 3.9042985154       -0.8484621733       -0.3599995720
C                 5.0568803752       -0.4346370860       -1.1888372142
O                 6.1542746584       -0.9564285061       -1.1130783179
O                 4.7767404926        0.5804824635       -2.0412513943
C                 5.8716594212        1.0090683066       -2.8615297879
N                 0.4220900421        0.2006515975       -0.0288337340
H                -6.1026294162        1.9190890356       -2.9430268805
H                -5.4452605629        3.2698146468       -2.0071319281
H                -6.7173942488        2.2507569048       -1.3157125802
H                -5.1242631294        0.2828195807       -1.3205344158
H                -3.8616560626        1.3101934749       -1.9954479309
H                -5.2021584291        1.7377445760        0.7246821854
H                -3.9290984646        2.7533142060        0.0477501894
H                -3.1848669137        1.0018938327        1.7774422150
H                -3.5646699860       -0.2413047003        0.6032941029
H                -1.9401066101       -1.0419173069        2.0311949315
H                -0.0608955595       -2.4908008621        2.6988775642
H                 1.5820701340       -4.0982823743        2.3206196738
H                 3.3091276801       -3.7896894456        2.6563174762
H                 2.0564956451       -2.9094479122        3.5764376620
H                 2.5395522476        0.5355129292       -1.1474479839
H                 4.1283511527       -1.6583777564        0.3193755906
H                 5.4774324022        1.8197981692       -3.4752057978
H                 6.2266934376        0.1883725037       -3.4911407786
H                 6.7014109211        1.3634579968       -2.2435737106



