%chk=./calculation/no_transfer_pubchem_sampling_0_b3lyp/158986902.chk
%nprocshared=7
%mem=6GB
#p b3lyp/6-31g(d) opt SCF=XQC 

Gaussian input prepared by ASE

0 1
C               -10.0104421057       -0.2031399531       -1.7068419881
C                -9.6925641759       -0.8513502094       -0.5914014836
C               -10.6311036971       -1.7407640888        0.1594630218
C                -8.3277051682       -0.7646057428       -0.0063773797
O                -7.9418530309       -1.4655577770        0.8999642104
O                -7.5753520459        0.1771042429       -0.5903927216
C                -6.2195076736        0.3020736909       -0.1760865601
C                -5.2895630274        0.0098171020       -1.3522139775
C                -3.8409217481        0.4546428268       -1.1085995418
O                -3.0880436427       -0.4746775053       -0.3749532548
C                -3.0541515029       -0.2881079989        1.0243417908
C                -1.9351779400       -1.1435049905        1.6088329900
C                -0.5703597766       -0.8049397211        1.0163420994
Si                0.0492998453        0.9711748361        1.3387266402
C                -0.2787685907        1.5184289878        3.1376956863
C                -0.6413352158        2.2677690921        0.1205306682
O                 1.6600630085        0.8809101541        1.0997305195
Si                3.2149211587        1.3838344242        1.1999262362
C                 3.8286702928        0.9667169375        2.9534335595
C                 3.2573034601        3.2665037100        0.9213935743
C                 4.1345658367        0.4079172606       -0.1505662354
Si                5.8896271101        0.9827509105       -0.6337495439
C                 6.9241989442        1.4314756148        0.9052941694
C                 5.7933151303        2.5021127847       -1.7843174399
C                 6.7752244738       -0.4216526861       -1.5939928541
C                 7.0907959823       -1.6445379507       -0.7364458633
C                 7.7071727811       -2.8001527634       -1.5279254131
C                 9.1091869183       -2.4944758131       -2.0418946639
P                -5.2454715373       -1.7698600002       -1.9782601186
C                -5.2380090826       -2.8027624536       -0.4454325455
H                -9.2987265112        0.4181901192       -2.2210563835
H               -10.9951334032       -0.2786630235       -2.1370019813
H               -10.7778170684       -1.3582982146        1.1684473373
H               -11.5908667765       -1.8065581099       -0.3443339534
H               -10.1985678736       -2.7354189488        0.2526397237
H                -6.0441568281       -0.3634279637        0.6728788569
H                -6.0832547948        1.3404719263        0.1493153369
H                -5.6711351088        0.5894696915       -2.2041095900
H                -3.3444820188        0.5190544704       -2.0824888035
H                -3.8107443670        1.4458523984       -0.6332425429
H                -4.0126454061       -0.5723805452        1.4833776256
H                -2.8695427511        0.7707968927        1.2498455781
H                -1.9269872226       -0.9986192211        2.6900318396
H                -2.1658061677       -2.1925114471        1.4086607430
H                -0.6177565955       -0.9871947426       -0.0569360398
H                 0.1616302210       -1.5064718988        1.4182217589
H                 0.1651113236        0.8214617540        3.8424511107
H                 0.1544836827        2.4953488087        3.3316776087
H                -1.3395299478        1.5800048226        3.3606934728
H                -0.8438904113        1.8260902392       -0.8503440332
H                -1.5644309836        2.7169111079        0.4743494081
H                 0.0763644939        3.0689092245       -0.0267896599
H                 3.7941545219       -0.1031997869        3.1340276425
H                 4.8496324078        1.2943704697        3.1128568708
H                 3.2067798215        1.4431588264        3.7054002128
H                 2.9294462314        3.5214697686       -0.0814538846
H                 4.2553160104        3.6700009690        1.0542815070
H                 2.5993774338        3.7759802220        1.6193072333
H                 3.5151746203        0.4099758130       -1.0464607697
H                 4.1841626869       -0.6323375726        0.1678861717
H                 6.5413833114        2.3246629098        1.3881789298
H                 6.9083937693        0.6303429731        1.6370496223
H                 7.9619248677        1.6186836584        0.6453201468
H                 5.2371400857        2.2770070126       -2.6886903825
H                 5.2979103957        3.3327528893       -1.2946560893
H                 6.7809264329        2.8391640783       -2.0837892394
H                 6.1557414377       -0.7374272663       -2.4354361102
H                 7.7019467731       -0.0381753301       -2.0212513374
H                 6.1690970558       -1.9995515716       -0.2704155203
H                 7.7742490237       -1.3584874272        0.0651541959
H                 7.0573147314       -3.0444686798       -2.3716896165
H                 7.7543536551       -3.6811304201       -0.8823185590
H                 9.5295986206       -3.3668627305       -2.5377255477
H                 9.0927833661       -1.6753289712       -2.7560668859
H                 9.7640100189       -2.2195450136       -1.2174417525
H                -6.6383763879       -1.8287071496       -2.1600565195
H                -5.3856855796       -3.8344778622       -0.7652918161
H                -6.0290423222       -2.5372324294        0.2530490923
H                -4.2638424553       -2.7267966400        0.0304814113



