%chk=calculation/no_transfer_pubchem_sampling_0_b3lyp/158986902_rwf.chk
%rwf=calculation/no_transfer_pubchem_sampling_0_b3lyp/158986902_rwf.rwf
%nprocshared=14
%mem=3GB
#p b3lyp/6-31g(d) 6D 10F nosymm GFInput td=(50-50,nstate=2) SCF=XQC 

Gaussian input prepared by ASE

0 1
C                -7.3719353190       -2.6248705773       -3.1381025839
C                -6.4179449251       -3.2969034816       -2.4814807355
C                -6.0004201903       -4.7048031996       -2.8160286086
C                -5.6816655467       -2.6817485116       -1.3341877173
O                -4.8220041556       -3.2748989877       -0.7088410784
O                -6.0701956883       -1.4118563524       -1.0719584591
C                -5.4447469868       -0.7156400064        0.0258641763
C                -4.9223236262        0.6412513010       -0.4543528040
C                -4.6216446107        1.5532870011        0.7370782967
O                -3.5538878531        1.0133530535        1.4968718004
C                -3.2919445151        1.7561311796        2.6801424631
C                -2.1108810481        1.1386507858        3.4209188780
C                -0.7722186334        1.1444862304        2.6563279375
Si                0.1001454327        2.7962197574        2.3064110104
C                 0.2184463325        3.8287193016        3.8845394714
C                -0.7318188572        3.8019060808        0.9416844762
O                 1.6264260402        2.4135821806        1.7998860393
Si                3.1700145627        2.0771035959        1.3008482111
C                 4.1874474961        1.6288691707        2.8267955830
C                 3.8699838203        3.6357703120        0.4968819867
C                 3.0863342368        0.6245111264        0.0995675247
Si                4.5607942269        0.1376810220       -0.9957678370
C                 6.1935528032        0.1260139422       -0.0262454695
C                 4.7154733617        1.3494415800       -2.4472779749
C                 4.2589546716       -1.5987963100       -1.7210461046
C                 4.1797238215       -2.7545269806       -0.7053368374
C                 3.8669269305       -4.1313441164       -1.3201037728
C                 4.9580026696       -4.6733342341       -2.2502279112
P                -3.4800265855        0.6331253585       -1.6860715420
C                -2.3549918562       -0.7314238873       -1.0849004702
H                -7.6450424713       -1.6118524445       -2.8662051114
H                -7.9043250922       -3.0785619632       -3.9699714952
H                -6.1400709048       -5.3691895875       -1.9559704989
H                -6.5784994614       -5.0927213025       -3.6594554984
H                -4.9349684932       -4.7475817218       -3.0685888046
H                -4.6632707162       -1.3384599204        0.4590859157
H                -6.2295318640       -0.5667985744        0.7787651656
H                -5.7336297541        1.1305011853       -1.0127005983
H                -4.3660509181        2.5640916293        0.3812294179
H                -5.5224964178        1.6452285750        1.3712327657
H                -4.1857632868        1.7461308571        3.3273708560
H                -3.0926143916        2.8090115777        2.4220103372
H                -2.0061598220        1.6731828494        4.3750402095
H                -2.3841855832        0.1060511212        3.6765208433
H                -0.8954143073        0.6130705920        1.7038669944
H                -0.0465536556        0.5497535139        3.2302275896
H                 0.7281508746        3.2778516562        4.6842122056
H                 0.7837845003        4.7513298551        3.7059505277
H                -0.7717902845        4.1177223720        4.2587480934
H                -0.9382575775        3.1869614779        0.0577160548
H                -1.6823055789        4.2401685993        1.2692607175
H                -0.0813239032        4.6278562997        0.6287120939
H                 3.7826948101        0.7384313058        3.3230420043
H                 5.2344997694        1.4225090127        2.5763144226
H                 4.1742582085        2.4478846910        3.5560440139
H                 3.3069433370        3.9109987533       -0.4028075064
H                 4.9204989611        3.5102615303        0.2072575222
H                 3.8182898445        4.4828173605        1.1917237608
H                 2.2393179063        0.8134239791       -0.5777807621
H                 2.7948494552       -0.2549310981        0.6937463739
H                 6.4719038396        1.1303853093        0.3150548948
H                 6.1419709340       -0.5202659557        0.8579975836
H                 7.0134288000       -0.2429134152       -0.6552719302
H                 3.7979762108        1.3690216504       -3.0483410872
H                 4.9097040406        2.3738432544       -2.1096800215
H                 5.5380191829        1.0598905188       -3.1129770749
H                 3.3276480623       -1.5670929709       -2.3080128169
H                 5.0593408610       -1.7946309622       -2.4495913208
H                 3.4057099116       -2.5304132822        0.0420516736
H                 5.1260026641       -2.8231719743       -0.1487119001
H                 2.9156031852       -4.0711327154       -1.8681013986
H                 3.7042376691       -4.8508558244       -0.5055244137
H                 4.6993109468       -5.6716719425       -2.6215533978
H                 5.1079155363       -4.0273840312       -3.1225592727
H                 5.9192961606       -4.7523925021       -1.7264635969
H                -4.1519792198       -0.1168927047       -2.6942705916
H                -1.5658101804       -0.8672756438       -1.8326441307
H                -2.8567570464       -1.6892722828       -0.9254112062
H                -1.8881297504       -0.4128720412       -0.1497155508



