%chk=calculation/no_transfer_pubchem_sampling_0_b3lyp/159679057_rwf.chk
%rwf=calculation/no_transfer_pubchem_sampling_0_b3lyp/159679057_rwf.rwf
%nprocshared=14
%mem=3GB
#p b3lyp/6-31g(d) 6D 10F nosymm GFInput td=(50-50,nstate=2) SCF=XQC 

Gaussian input prepared by ASE

0 1
C                -0.3393754316       -0.6663396926       -1.0023803376
C                 0.7699178740       -0.7432255524       -2.0585441601
C                 0.3463093722       -1.2322210838       -3.4562129281
C                -0.6629208462       -0.3438525149       -4.2171372755
C                -2.1376265883       -0.7001199702       -3.9612760601
C                -3.1182628710        0.1467699739       -4.8093380971
C                -2.8747930212        1.6449966669       -4.5720459777
O                -2.4500804269        2.3927032176       -5.4536901383
N                -3.1432091501        2.0990284711       -3.3138781910
C                -2.8529739881        3.4833468426       -2.9701563553
N                -1.4491167684        3.8335867858       -3.0783168647
C                -0.5776271606        3.4615572653       -2.0783333700
O                -0.9463388712        3.0002492401       -1.0028818415
C                 0.8475530025        3.7022014263       -2.3885584828
C                 1.5186259788        4.3950011962       -3.3659121225
C                 2.9039718601        4.2532807904       -3.0866046071
C                 2.9995750178        3.4795587829       -1.9515429569
C                 4.1218465090        2.9783663493       -1.1701822174
C                 5.4450193735        3.2538494935       -1.5496569642
C                 6.4913549755        2.7665873584       -0.7824021762
C                 6.2833598959        1.9967886608        0.3708163114
C                 7.5397826601        1.5403704101        1.0717420322
O                 8.6510492386        1.7891897313        0.5984120220
N                 7.4033580103        0.8575903147        2.2428674460
C                 8.5685004363        0.3652833852        2.9691808224
C                 9.2181721580        1.4693538162        3.8159292752
C                10.4660336155        0.9950289032        4.5430436388
C                11.3208362435        2.0597303959        5.2040180687
O                10.7603275700       -0.1867366381        4.5894820498
C                 8.0751936825       -0.7838302050        3.8470713863
O                 7.4623932583       -0.6105468947        4.8827015693
O                 8.3289454199       -1.9790565537        3.2959270986
C                 7.8320258613       -3.1432881685        4.0160695607
C                 6.4017963995       -3.4590320223        3.6518713812
C                 5.3429403015       -3.0279120491        4.4619623623
C                 4.0226087469       -3.3192866677        4.1135859652
C                 3.7467993024       -4.0383459431        2.9481037054
C                 4.7964507688       -4.4679612930        2.1331673329
C                 6.1149802993       -4.1810918112        2.4861713200
C                 4.9450837003        1.7192562069        0.7464077573
O                 4.7484791031        0.9564327841        1.8648430527
C                 3.4340654846        0.5193733508        2.2573335588
C                 2.7073498295        1.5581769376        3.1015866883
C                 3.8851135553        2.2122426719       -0.0185483000
O                 1.7473943775        3.1465555538       -1.5262276160
C                -4.6493001012       -0.1632998848       -4.6283535627
C                -5.3819962657       -0.1594056772       -5.9846626078
C                -6.9045587075       -0.2739842592       -5.8736899472
N                -4.9242820721       -1.3733726495       -3.8245284325
C                -4.8073973868       -2.6708132663       -4.2601822009
O                -5.2998136285       -3.6491008478       -3.7367626664
O                -5.9188728714       -1.2277578981       -2.8353311746
C                -5.4758276087       -0.6772349748       -1.6462985256
O                -4.4272613568       -0.0667621153       -1.5480179926
C                -6.4570499811       -0.8848577243       -0.5792443647
C                -7.5297513506       -1.7833297047       -0.6897916935
C                -8.4152006434       -1.9594232365        0.3618258789
C                -8.2853395479       -1.2497318648        1.5841935879
N                -9.1726709618       -1.4300912296        2.6090225684
C               -10.3689279209       -2.2664838069        2.4573031420
C               -11.1385865580       -2.0444888645        3.7644520079
C               -10.0172633402       -1.8120936646        4.7868829030
C                -8.9900147870       -0.9820669004        4.0049087988
C                -7.1916921651       -0.3449289683        1.6513674668
F                -7.0195790526        0.4012158262        2.7748316718
C                -6.2998866014       -0.1684196700        0.6214230957
H                -1.0562136399        0.1326319027       -1.2142185629
H                 0.0849332175       -0.4508274617       -0.0143778798
H                -0.8903126000       -1.6124701809       -0.9280893173
H                 1.5591381744       -1.4175141748       -1.6970928188
H                 1.2389482362        0.2461849413       -2.1529458454
H                 1.2574413921       -1.3155746320       -4.0633964807
H                -0.0546043302       -2.2540480485       -3.3784158166
H                -0.4744123975       -0.4306968697       -5.2961534178
H                -0.4750053479        0.7094618580       -3.9693558673
H                -2.2775945468       -1.7571767651       -4.2169534956
H                -2.3879592753       -0.6146760653       -2.9017624730
H                -2.8638649181       -0.0045040464       -5.8641637184
H                -3.3892650802        1.4444184986       -2.5768200195
H                -3.4067670114        4.1429768949       -3.6420947655
H                -3.1698242329        3.6496682080       -1.9417820909
H                -1.1050126267        3.8575020066       -4.0310422855
H                 1.0757641553        4.9583682060       -4.1757836086
H                 3.7248884086        4.6743311170       -3.6491037420
H                 5.6526804615        3.8432401421       -2.4370059320
H                 7.5222763919        2.9603197216       -1.0576238862
H                 6.4759290992        0.7202620249        2.6241566295
H                 9.2896741124       -0.0119927605        2.2427553640
H                 9.4604890882        2.3169539194        3.1647818886
H                 8.4989478762        1.8309116645        4.5632231943
H                10.7111169264        2.7080650468        5.8448876135
H                12.1105934596        1.5898212113        5.7936534579
H                11.7731509343        2.7021586635        4.4376172484
H                 8.5061509270       -3.9441534555        3.7060817279
H                 7.9441972986       -2.9630376756        5.0866848132
H                 5.5611556863       -2.4561630866        5.3587677744
H                 3.2096695218       -2.9913528461        4.7566026275
H                 2.7191068470       -4.2677859216        2.6787767640
H                 4.5883342918       -5.0303183495        1.2268823641
H                 6.9313523403       -4.5194613495        1.8521130216
H                 2.8611795203        0.2340750646        1.3683896152
H                 3.6219772134       -0.3884948963        2.8367909735
H                 2.5136583399        2.4783252666        2.5426340728
H                 3.2997971056        1.8104480646        3.9869641702
H                 1.7445661585        1.1542346806        3.4347056184
H                 2.8605491648        2.0176881676        0.2668594749
H                -5.0813028535        0.6310739369       -4.0194936336
H                -4.9863835950       -0.9671801516       -6.6150819245
H                -5.1120967935        0.7768159850       -6.4904722606
H                -7.2065313401       -1.2076515581       -5.3869346040
H                -7.3659083303       -0.2506382677       -6.8667402548
H                -7.3232355457        0.5547175398       -5.2903900637
H                -4.1595509315       -2.7156024637       -5.1553371132
H                -7.6485487401       -2.3663663212       -1.5958353588
H                -9.2188348295       -2.6772139238        0.2522545285
H               -10.9428841160       -1.9656877305        1.5728578237
H               -10.0960697955       -3.3264154798        2.3323670677
H               -11.7688102654       -1.1512331328        3.6811157778
H               -11.7849608034       -2.8910832394        4.0126583489
H                -9.5766738323       -2.7705496516        5.0864520061
H               -10.3556059752       -1.3010146337        5.6928666874
H                -9.1896684388        0.0926286588        4.0964642283
H                -7.9659005292       -1.1588599106        4.3406873572
H                -5.4834804774        0.5352871178        0.7404626801



