%chk=./calculation/no_transfer_pubchem_sampling_0_b3lyp/21083450.chk
%nprocshared=7
%mem=6GB
#p b3lyp/6-31g(d) opt SCF=XQC 

Gaussian input prepared by ASE

0 1
O                -1.1580752940        2.9738906103       -0.5292110275
C                -0.6957514097        1.9231119236       -0.1782303571
N                -1.4000364000        0.8003378358        0.0756439588
C                -2.8369944323        0.7432726204       -0.0789171178
C                -3.5577217118        0.3127367102        1.2173199086
C                -4.2920869929       -0.9677038073        0.7930030019
C                -3.2969614898       -1.5978908560       -0.1892530568
C                -3.2716799262       -0.3497817522       -1.0721077620
C                -4.7741813625       -0.1431629605       -1.3203270404
N                -5.4025942991       -0.5374341821       -0.0509754365
N                 0.7077770583        1.7466265783        0.0056937492
C                 1.4484778421        0.6116029844       -0.1168867518
C                 2.7645172326        0.9517897059        0.1144359499
C                 3.9373880079        0.0926078527        0.0966863301
C                 5.1186014136        0.4866770695        0.7261650985
C                 6.2347264310       -0.3282747726        0.7111962880
C                 6.2038648478       -1.5557670964        0.0709563209
C                 5.0284738015       -1.9368630521       -0.5495500157
F                 4.9774354541       -3.1312242648       -1.1800848488
C                 3.9008698886       -1.1418349748       -0.5503223245
C                 2.7067411816        2.3468302657        0.3733224366
N                 1.4839300682        2.7979706574        0.2910013968
H                -0.9413963344       -0.0138693827        0.4508124883
H                -3.1372654100        1.7370787255       -0.4159317161
H                -2.8418136393        0.1128748212        2.0145054791
H                -4.2635367429        1.0647201670        1.5594917712
H                -4.6313208404       -1.5797988977        1.6265955453
H                -2.3374579358       -1.8487624320        0.2577650446
H                -3.6985244120       -2.4731510543       -0.6984262671
H                -2.6727600927       -0.3872030656       -1.9791422875
H                -5.1215111179       -0.7521569730       -2.1601570336
H                -5.0080271109        0.9024190497       -1.5370845742
H                -6.0680278909       -1.2889678675       -0.1885421836
H                 1.0111266379       -0.3303129358       -0.3793519329
H                 5.1555229883        1.4349028363        1.2387689884
H                 7.1401146033       -0.0077186079        1.2038638345
H                 7.0628802767       -2.2065911108        0.0467001033
H                 3.0150850845       -1.4807621687       -1.0630406210
H                 3.5101950278        3.0197848006        0.5945716606



