%chk=calculation/no_transfer_pubchem_sampling_0_b3lyp/23128153_rwf.chk
%rwf=calculation/no_transfer_pubchem_sampling_0_b3lyp/23128153_rwf.rwf
%nprocshared=14
%mem=3GB
#p b3lyp/6-31g(d) 6D 10F nosymm GFInput td=(50-50,nstate=2) SCF=XQC 

Gaussian input prepared by ASE

0 1
C                 2.0041993224       -1.9098617393        1.1761305594
C                 0.9790257868       -1.4840817118        0.1473677610
O                 0.2897633799       -2.2955844317       -0.4486527803
C                 0.7958184706       -0.0083464126       -0.0940035503
C                 1.9018183763        0.8269940282       -0.2955886901
C                 1.7527501279        2.1753619741       -0.6164839924
C                 0.4668062298        2.6908116179       -0.7008243242
F                 0.2971995280        3.9935320514       -0.9957892310
C                -0.6574678728        1.9061511191       -0.4710456849
C                -0.4955209921        0.5528017642       -0.1769869355
N                -1.6699838576       -0.2296361884        0.0612935182
C                -2.4721491085       -0.6262702039       -1.0938467903
C                -1.8502271243       -0.8233571465        1.2845629068
O                -1.1096901093       -0.7016692475        2.2448305587
H                 2.9745280778       -1.4226277221        1.0342920483
H                 2.1242399740       -2.9945481439        1.1428003443
H                 1.6292041191       -1.6113622001        2.1631039292
H                 2.9037480096        0.4140174168       -0.2309646119
H                 2.6071574659        2.8192859574       -0.7945971121
H                -1.6449218666        2.3537627400       -0.5021630080
H                -2.8094009927        0.2530572682       -1.6514649812
H                -3.3525466763       -1.1718948841       -0.7428387244
H                -1.8887056816       -1.2779265717       -1.7529111844
H                -2.7756435861       -1.4286083337        1.3137799752



