%chk=./calculation/no_transfer_pubchem_sampling_0_b3lyp/23128153.chk
%nprocshared=7
%mem=6GB
#p b3lyp/6-31g(d) opt SCF=XQC 

Gaussian input prepared by ASE

0 1
C                 1.9697706647       -1.8267285161        1.3683527082
C                 1.0473878749       -1.5021858260        0.2320139704
O                 0.4876328790       -2.3419571668       -0.4323320005
C                 0.8457918938       -0.0451150491       -0.0590563904
C                 1.9347549699        0.7946039756       -0.2611706520
C                 1.7671096080        2.1066746327       -0.6652151233
C                 0.4810288474        2.5732196519       -0.8620601581
F                 0.2942704953        3.8450044283       -1.2631668352
C                -0.6280960916        1.7751934913       -0.6576491666
C                -0.4484632814        0.4573998650       -0.2547280173
N                -1.5733805689       -0.3579440055       -0.0185475916
C                -2.6593600311       -0.3288421959       -0.9733630451
C                -1.6740476266       -1.0733937203        1.1239669606
O                -0.8758894277       -1.0710761092        2.0289473210
H                 2.8708169799       -1.2219018925        1.3446516699
H                 2.2178301896       -2.8845265121        1.3560120709
H                 1.4298326434       -1.5981413653        2.2867093849
H                 2.9353380522        0.4099769551       -0.1392073469
H                 2.6098046686        2.7574283429       -0.8331042491
H                -1.6127625009        2.1880142542       -0.8058300872
H                -3.3749839150        0.4670419412       -0.7478074279
H                -3.1818972904       -1.2839110213       -0.9510113366
H                -2.2562612377       -0.1752355109       -1.9729969826
H                -2.6062267952       -1.6635976474        1.1565923247



