%chk=./calculation/no_transfer_pubchem_sampling_0_b3lyp/29219047.chk
%nprocshared=7
%mem=6GB
#p b3lyp/6-31g(d) opt SCF=XQC 

Gaussian input prepared by ASE

0 1
C                 8.2083456272       -0.6137885820        0.0647113353
C                 7.0007984545       -1.2140501964        0.7764311714
N                 5.8373407001       -1.2486695185       -0.0891175618
C                 5.3518823807        0.0874880370       -0.4124722087
C                 3.8885686266        0.0425663419       -0.8423212153
N                 2.9995613459       -0.4287770041        0.2169553516
C                 2.3137709808        0.6387815118        0.9202925080
C                 1.4667166506        1.5077766383       -0.0048004013
O                 1.6261942222        2.7181381068       -0.0378836510
N                 0.5489703438        0.8873766523       -0.7687360074
C                -0.3620149975        1.6855237956       -1.5678382784
C                -1.7983698975        1.1583971244       -1.4639036211
C                -2.1012337302        0.5387820612       -0.0918738054
C                -1.9268677596        1.6041410797        1.0052182229
O                -2.3108536099        1.0595084392        2.2523211228
C                -3.5317699369       -0.0316016015       -0.0516782745
C                -4.6705126000        0.9898890846       -0.1595031354
C                -5.9862933807        0.2657069481       -0.1844405216
C                -6.5964875909       -0.0617113630       -1.3878809241
C                -7.7917477121       -0.7587413378       -1.4074913904
C                -8.3915584408       -1.1412113251       -0.2202855515
C                -7.7891864803       -0.8232768938        0.9852832211
C                -6.5949696145       -0.1259317629        1.0013776288
C                -1.1181164229       -0.6282746583        0.1652643657
C                 0.1621097244       -0.4979117689       -0.6698821595
C                 3.6835711724       -1.3236065068        1.1407037575
C                 4.7611256717       -2.1043899507        0.3916094716
H                 8.0752364432        0.4503064295       -0.1091546399
H                 9.0991468849       -0.7533576866        0.6721953865
H                 8.3523733456       -1.1086910725       -0.8916390454
H                 7.2369487688       -2.2452640635        1.0519354729
H                 6.8097002939       -0.6471682992        1.7078299100
H                 5.9555282769        0.4912855946       -1.2299364113
H                 5.4500898888        0.7708872601        0.4498508430
H                 3.5707215201        1.0374369100       -1.1575642751
H                 3.7884898147       -0.6321791548       -1.6991398201
H                 1.6613556414        0.1859687696        1.6746656411
H                 3.0092710041        1.3206665110        1.4394581003
H                -0.0352607509        1.6699080617       -2.6150472522
H                -0.2891271844        2.7153146918       -1.2102635829
H                -2.4810504253        1.9838273344       -1.6643600583
H                -1.9716963258        0.3946808318       -2.2243353641
H                -2.5420441882        2.4820364235        0.7640005565
H                -0.8808819919        1.9297067397        1.0470885793
H                -2.1636893811        1.7224756787        2.9334192058
H                -3.6378958878       -0.7528950241       -0.8660877021
H                -3.6472240935       -0.5678937267        0.8912679077
H                -4.6436316751        1.6578501374        0.7012543347
H                -4.5629980282        1.5818674041       -1.0695673799
H                -6.1331190702        0.2359456736       -2.3184001962
H                -8.2568727798       -1.0031300448       -2.3517000055
H                -9.3253664469       -1.6839079425       -0.2342320572
H                -8.2529420269       -1.1188729406        1.9153445675
H                -6.1266462395        0.1213120583        1.9434735839
H                -0.8795077747       -0.6435771050        1.2286693918
H                -1.5944902806       -1.5789654676       -0.0764234953
H                 0.9787794564       -1.0785498387       -0.2459275674
H                -0.0156827021       -0.8593481282       -1.6875827258
H                 4.1540815939       -0.7730152331        1.9736018544
H                 2.9440764964       -2.0087214438        1.5698556121
H                 4.3004974229       -2.5999228398       -0.4700171595
H                 5.1748556739       -2.8781488492        1.0403983415



