%chk=calculation/no_transfer_pubchem_sampling_0_b3lyp/3621152_rwf.chk
%rwf=calculation/no_transfer_pubchem_sampling_0_b3lyp/3621152_rwf.rwf
%nprocshared=14
%mem=3GB
#p b3lyp/6-31g(d) 6D 10F nosymm GFInput td=(50-50,nstate=2) SCF=XQC 

Gaussian input prepared by ASE

0 1
O                 4.4752305644        0.1196427706        2.1682973405
C                 3.6586960236        0.2069191810        1.2510900627
C                 3.7948422113       -0.6315815716       -0.0133853610
S                 5.0636170358       -0.0102891742       -1.2001992409
C                 6.5616261288       -0.6081721793       -0.4746025061
N                 7.6299917810       -0.9358323772       -1.1860819696
C                 8.5244710253       -1.2796347025       -0.2161364367
N                 8.0787406002       -1.1996330089        1.0297404334
N                 6.8106994102       -0.7510453332        0.8466676045
N                 2.5741727293        1.0326755658        1.3818820915
C                 1.5498818539        1.3667221404        0.4530558488
C                 1.8528251883        1.8116544020       -0.8406238777
C                 0.8243351747        2.1689614437       -1.7134431883
C                -0.5071082890        2.1156652369       -1.3022822059
C                -0.7964380076        1.6843075668       -0.0047730460
S                -2.5161632421        1.5709418368        0.5383797304
O                -2.4865730951        1.5126101154        2.0022698843
O                -3.2502755926        2.6094727548       -0.1871537519
N                -3.0945299845        0.0984894657        0.0066811653
C                -3.4840295979       -0.0303482494       -1.4070188150
C                -4.4565693814       -1.1957882098       -1.6533135019
C                -5.5675267113       -1.3633865644       -0.5995825830
C                -5.1445899759       -2.2206463780        0.6072378134
C                -4.0718719051       -1.6142527316        1.5239757496
C                -2.8124413598       -1.1060008754        0.8085952250
C                 0.2168361894        1.3073689759        0.8753877767
H                 4.0701753775       -1.6445670478        0.2901920628
H                 2.8660837192       -0.6781018303       -0.5841799512
H                 9.5299366213       -1.6101787984       -0.4386912461
H                 6.1772419765       -0.5439995237        1.6210997962
H                 2.5215332440        1.4589681000        2.3019316668
H                 2.8897815136        1.9112510999       -1.1461852493
H                 1.0688213686        2.5229912218       -2.7104836123
H                -1.3081807350        2.4379953783       -1.9582406147
H                -2.5973890728       -0.1582736177       -2.0497109801
H                -3.9649715488        0.9095003102       -1.6841325709
H                -3.9003203056       -2.1385536145       -1.7398183772
H                -4.8976977540       -1.0205785487       -2.6425933814
H                -6.4252907610       -1.8536582900       -1.0766571086
H                -5.9195331265       -0.3786571536       -0.2647541751
H                -4.7875094509       -3.1903381040        0.2287170779
H                -6.0305937439       -2.4426672675        1.2159210760
H                -4.4845072967       -0.7696015307        2.0879748003
H                -3.7682975766       -2.3698295776        2.2618879085
H                -2.0549538551       -0.8583054771        1.5549665429
H                -2.3815679535       -1.8752449944        0.1538762858
H                -0.0306074141        0.9938391654        1.8842138071



