%chk=./calculation/no_transfer_pubchem_sampling_0_b3lyp/52317513.chk
%nprocshared=7
%mem=6GB
#p b3lyp/6-31g(d) opt SCF=XQC 

Gaussian input prepared by ASE

0 1
O                 1.0112495862        0.0735837464        1.7779163432
C                 0.4235079337        0.3390130466        0.7480039554
C                 1.1300283984        1.0257532566       -0.4273226372
N                 2.5483698568        1.1051335278       -0.2316758828
C                 3.1643434618        1.8805969776        0.8184447427
C                 4.6358470115        1.4663887089        0.7099182725
N                 4.6044747343        0.2783182044       -0.1237129776
C                 5.7470217380       -0.4887802896       -0.3558083446
C                 5.6733322862       -1.7084157198       -1.0295932465
C                 6.8134346099       -2.4584892243       -1.2402071121
C                 8.0454687370       -2.0193996001       -0.7849467963
C                 8.1241137399       -0.8122573846       -0.1148617611
C                 6.9904629198       -0.0494799985        0.1001576472
C                 3.3582121920        0.0912510552       -0.6757002518
O                 3.0041490089       -0.7579731515       -1.4640130370
N                -0.8835804311        0.0369355762        0.5744683039
C                -1.7183625736        0.3628968804       -0.5549107449
C                -2.8612036667        1.2916882481       -0.1023980963
N                -3.6018418689        0.6720535689        0.9679318272
C                -4.8934330421        0.2471490342        0.9552486417
O                -5.3611519834       -0.3846932972        1.8782986787
C                -5.7298835321        0.6037911566       -0.2828196737
C                -5.4574177112       -0.4245640726       -1.4141173049
C                -6.8184614864       -1.0994382812       -1.6208150126
C                -7.5426379874       -0.7723249357       -0.3118828239
O                -7.1039839323        0.5293246003        0.0167044113
C                -2.7588408896        0.3360064427        2.1014144560
C                -1.6262729924       -0.5874416431        1.6541105516
H                 0.7270381055        2.0347475738       -0.5699046436
H                 0.9917355249        0.4305628291       -1.3350916669
H                 2.7393056621        1.6188807849        1.7930765629
H                 3.0184849015        2.9506357251        0.6380990863
H                 5.2348450513        2.2508231704        0.2305127555
H                 5.0677951990        1.2377675895        1.6876047236
H                 4.7205611303       -2.0566197738       -1.3893874802
H                 6.7354777849       -3.3997136296       -1.7642021341
H                 8.9335113936       -2.6105225527       -0.9503607398
H                 9.0772022691       -0.4535634146        0.2462746046
H                 7.0877276902        0.8895915322        0.6214035512
H                -2.1491442601       -0.5646736648       -0.9520366647
H                -1.1471822771        0.8458044998       -1.3438000280
H                -3.5029565816        1.5118496945       -0.9516822885
H                -2.4291878070        2.2300929179        0.2690785915
H                -5.5430591556        1.6405017994       -0.5800896569
H                -4.7136499835       -1.1522971215       -1.0873293559
H                -5.0973670941        0.0582002790       -2.3212430656
H                -7.3451231638       -0.6432335509       -2.4590900271
H                -6.7351397812       -2.1695460823       -1.7926351271
H                -8.6278886273       -0.7380486249       -0.4039636193
H                -7.2614009520       -1.4780319316        0.4790561468
H                -2.3421427137        1.2581636499        2.5204546878
H                -3.3840739730       -0.1544040435        2.8481423593
H                -2.0396203392       -1.5380573082        1.3010783181
H                -0.9326921202       -0.7755387795        2.4740839822



