%chk=./calculation/no_transfer_pubchem_sampling_0_b3lyp/54696300.chk
%nprocshared=7
%mem=6GB
#p b3lyp/6-31g(d) opt SCF=XQC 

Gaussian input prepared by ASE

0 1
C                -3.1638684528        2.5069482383       -0.4142228280
C                -2.4653853354        2.0666350218        0.8737458113
C                -1.3473212684        1.1123881725        0.5743124577
C                -0.0442612361        1.5294276346        0.4982455306
C                 1.0130093296        0.6591959843        0.1844305135
C                 2.3790893675        1.0931936912        0.1126393558
O                 2.7460933369        2.3483523014        0.3894764887
C                 3.3457530668        0.1782561364       -0.2000304261
N                 4.7323679553        0.5947496180       -0.2665114550
O                 4.9946347083        1.5207393412       -0.9981658189
O                 5.5214467356       -0.0082703580        0.4173738815
C                 3.0718031918       -1.2172408700       -0.4766092128
O                 3.9123327214       -2.0293826344       -0.7996645957
N                 1.7257764495       -1.5793396735       -0.3768063790
C                 1.4274452072       -2.9741129661       -0.6321229702
C                 0.7255452004       -0.7001778880       -0.0639930238
C                -0.6058100027       -1.1289964200        0.0172692241
C                -1.6290213270       -0.2513901239        0.3249805974
O                -2.9303141324       -0.6046920124        0.4147475921
C                -3.2992835449       -1.9484505717        0.2111425161
H                -3.9631480109        3.2075432450       -0.1870726697
H                -2.4572444870        2.9906286945       -1.0851314103
H                -3.5909332052        1.6465502569       -0.9218141590
H                -2.0718193492        2.9425602922        1.3922657202
H                -3.1919637153        1.5752203456        1.5218107053
H                 0.1551209371        2.5758089423        0.6893624923
H                 1.9838556015        2.9092991362        0.5794130104
H                 0.9848615242       -3.4421038998        0.2477351667
H                 0.7608501830       -3.0769657848       -1.4889963987
H                 2.3753774765       -3.4619919816       -0.8577689780
H                -0.8364291929       -2.1623180149       -0.1678121741
H                -3.0571836391       -2.2822584302       -0.8024442395
H                -2.8227257113       -2.6108741036        0.9399711582
H                -4.3786503821       -1.9789323192        0.3502425167



