%chk=calculation/no_transfer_pubchem_sampling_0_b3lyp/55538781_rwf.chk
%rwf=calculation/no_transfer_pubchem_sampling_0_b3lyp/55538781_rwf.rwf
%nprocshared=14
%mem=3GB
#p b3lyp/6-31g(d) 6D 10F nosymm GFInput td=(50-50,nstate=2) SCF=XQC 

Gaussian input prepared by ASE

0 1
C               -10.2528042566       -1.0434969707       -0.9092493579
O                -8.9148950025       -1.1508361031       -0.3980816297
C                -7.9564689416       -0.6096816081       -1.1902233886
O                -8.1950109661       -0.0702258885       -2.2571248739
C                -6.6170303241       -0.7464056357       -0.6229604878
S                -5.2792691520       -0.0856515251       -1.5471516476
C                -4.2081660849       -0.6396400899       -0.2615036454
N                -2.8540581055       -0.4040209986       -0.3882351705
C                -1.8238638510       -0.7482904736        0.5118363550
O                -2.0229791044       -1.3251526886        1.5639662866
C                -0.4884244430       -0.3266890176        0.0254148177
C                 0.6018416062       -0.5754564828        0.7773969590
C                 1.9920891129       -0.2488735850        0.4868086694
C                 2.9781599968       -0.5724801498        1.4333624467
C                 4.3213978123       -0.2779269813        1.2226156051
C                 4.7268541499        0.3437257328        0.0320260534
N                 6.0862801966        0.6152793555       -0.2223931261
C                 7.1521693421        0.1577226171        0.6698603562
C                 8.4641385741        0.5553025987       -0.0206436660
C                 8.2665532350        1.9914821656       -0.5047367489
S                 6.5243488598        2.0797470635       -1.0459849355
O                 5.8535759384        3.2349638800       -0.4421823932
O                 6.4120193166        1.8594739805       -2.4907263125
C                 3.7532652064        0.6550083329       -0.9391256228
C                 2.4185923545        0.3747184487       -0.7042090960
N                -4.7916072405       -1.2459083035        0.7361831248
C                -6.1503852683       -1.3140655516        0.5476807774
C                -6.9713366679       -1.9852272817        1.6124891339
H               -10.8877194871       -1.5208229523       -0.1620912462
H               -10.5326219472        0.0053300233       -1.0389173495
H               -10.3396736011       -1.5547469215       -1.8716582192
H                -2.5701061153        0.0798384327       -1.2293145464
H                -0.4167736813        0.1808203785       -0.9343748245
H                 0.4163141551       -1.0834502074        1.7230963009
H                 2.6829273159       -1.0559206175        2.3611912803
H                 5.0455326268       -0.5293449499        1.9894645489
H                 7.0733605601       -0.9273347177        0.7862507026
H                 7.0807886089        0.6179541539        1.6681918971
H                 8.6500882114       -0.1083574625       -0.8703379975
H                 9.3120101136        0.4835077388        0.6665928104
H                 8.3692740214        2.7249531649        0.2992681919
H                 8.8845466262        2.2791251300       -1.3573095801
H                 4.0547838621        1.1011225780       -1.8804392566
H                 1.6944652898        0.6288526414       -1.4724664681
H                -7.7139178431       -1.2993593885        2.0323308970
H                -7.5231382073       -2.8399534222        1.2086616974
H                -6.3051278024       -2.3273224414        2.4067546791



