%chk=./calculation/no_transfer_pubchem_sampling_0_b3lyp/56147068.chk
%nprocshared=7
%mem=6GB
#p b3lyp/6-31g(d) opt SCF=XQC 

Gaussian input prepared by ASE

0 1
O                -0.1772769073       -2.1774363218        0.6495672386
C                -0.0663695533       -1.0350064523        0.2703671540
N                 1.1260210970       -0.5461760450       -0.1759270026
C                 1.4191772397        0.7786566257       -0.6635643134
C                 2.9016862050        0.9104746051       -1.0271966969
N                 3.7931879929        0.7937466757        0.1012433992
S                 4.4527400356       -0.6933425792        0.4740436378
O                 4.5731859050       -0.7621903351        1.8937433781
O                 3.7699174749       -1.7287174473       -0.2486692774
C                 6.0896952148       -0.5188889289       -0.2403405728
C                 6.4978001451       -1.3748439579       -1.2466276895
C                 7.7678962663       -1.2428695074       -1.7914223316
C                 8.6163576995       -0.2528347758       -1.3284693902
C                 8.1837888149        0.5994968742       -0.3185085708
N                 9.0677401257        1.6464609935        0.1577779689
O                 8.6167203743        2.4309636654        0.9595945918
O                10.1924782246        1.6687236410       -0.2857409081
C                 6.9186756725        0.4727135173        0.2397564880
N                -1.1034410637       -0.1208424041        0.2439463041
C                -2.4203153089       -0.3200361568        0.6427595740
C                -3.3263754143        0.7340272495        0.5027710502
C                -4.6393020663        0.5665558216        0.8895487768
C                -5.0142989416       -0.6739537037        1.4100973838
O                -6.2658829942       -0.9242252880        1.8888013347
C                -7.3627045590       -0.3932594978        1.2716134121
C                -7.4330472467       -0.1781381520       -0.1025833790
C                -8.5952580554        0.3111844510       -0.6688340680
C                -9.6810333046        0.5742197165        0.1457658968
F               -10.8144101052        1.0581648322       -0.4074548428
C                -9.6387262101        0.3506813683        1.5103558303
C                -8.4735945184       -0.1337223147        2.0715732282
N                -4.1605759731       -1.6715616892        1.5527106530
C                -2.9043708096       -1.5112047717        1.1888650861
H                 1.8839877981       -1.2201594405       -0.1709943991
H                 0.8310672631        1.0018702513       -1.5663807226
H                 1.1833793373        1.5333643600        0.1026748142
H                 3.1802682543        0.1174213306       -1.7227879122
H                 3.0679460428        1.8807404071       -1.5073071500
H                 3.5053241471        1.2920271656        0.9284134529
H                 5.8129180295       -2.1374254547       -1.5828314623
H                 8.0942355865       -1.9106004308       -2.5730231934
H                 9.6094942889       -0.1247491704       -1.7325360933
H                 6.5974966118        1.1268196844        1.0345868589
H                -0.9093292353        0.8013128523       -0.1152791560
H                -2.9985538091        1.6832204672        0.0991854109
H                -5.3531190957        1.3719421386        0.8065757070
H                -6.5825383479       -0.4076949906       -0.7268537742
H                -8.6666327878        0.4814304866       -1.7313215193
H               -10.5066108857        0.5574671803        2.1157819128
H                -8.4058383583       -0.3240492512        3.1305080576
H                -2.2535822959       -2.3597582941        1.3296608247



