%chk=calculation/no_transfer_pubchem_sampling_0_b3lyp/56147068_rwf.chk
%rwf=calculation/no_transfer_pubchem_sampling_0_b3lyp/56147068_rwf.rwf
%nprocshared=14
%mem=3GB
#p b3lyp/6-31g(d) 6D 10F nosymm GFInput td=(50-50,nstate=2) SCF=XQC 

Gaussian input prepared by ASE

0 1
O                -0.2018887473       -2.3852165059        0.6539099332
C                -0.0768599636       -1.1988804189        0.3824175264
N                 1.1568928331       -0.6454104225        0.0960361057
C                 1.4035764818        0.6565139856       -0.4902682322
C                 2.8758982942        0.8601671845       -0.8665750410
N                 3.8156157134        0.8339478348        0.2610201113
S                 4.6322015268       -0.5756382106        0.6757590853
O                 4.8589884802       -0.4825497730        2.1173095901
O                 3.9669372778       -1.7344722838        0.0599117260
C                 6.2126827073       -0.4088774085       -0.1691822880
C                 6.6251165004       -1.4123889313       -1.0471328277
C                 7.8748135630       -1.3096521536       -1.6649835029
C                 8.6996273953       -0.2180135274       -1.4069380375
C                 8.2547351008        0.7640235450       -0.5211422314
N                 9.1213019873        1.9272377669       -0.2478429166
O                 8.6910457295        2.7880931083        0.5166490966
O                10.2158879252        1.9606882871       -0.8056900871
C                 7.0213436569        0.6906190619        0.1142792772
N                -1.1351167981       -0.2979695162        0.3417068688
C                -2.4919140149       -0.5597450373        0.6130798383
C                -3.3877741289        0.5191511601        0.6055415123
C                -4.7372295399        0.3104890633        0.8525717327
C                -5.1543062989       -1.0039290700        1.0959786070
O                -6.4575380269       -1.3325192928        1.3997459677
C                -7.4924265782       -0.5045903291        1.0061687885
C                -7.7216226146       -0.2146282050       -0.3427081694
C                -8.8241862116        0.5569633427       -0.7068232730
C                -9.6846786217        1.0142294356        0.2860394534
F               -10.7549118752        1.7585680142       -0.0675838423
C                -9.4767627863        0.7248317552        1.6293854935
C                -8.3661253213       -0.0388028422        1.9899275013
N                -4.3267484444       -2.0369171700        1.1129726415
C                -3.0249234258       -1.8324434913        0.8828295153
H                 1.9026620989       -1.3342516767        0.0672858705
H                 0.8118634372        0.8094881670       -1.4076426146
H                 1.1171240915        1.4601958685        0.2099787636
H                 3.1881060940        0.0945851851       -1.5821006173
H                 2.9731329344        1.8309060101       -1.3654405765
H                 3.5086669813        1.2994629689        1.1118974298
H                 5.9715995973       -2.2567367740       -1.2364116666
H                 8.2041661074       -2.0851880364       -2.3491098364
H                 9.6714565234       -0.1118940248       -1.8729345284
H                 6.7152733677        1.4714602253        0.7990729910
H                -0.9155064001        0.6776890230        0.2012676314
H                -3.0272123974        1.5285064463        0.4139390075
H                -5.4368955485        1.1379298785        0.8623706372
H                -7.0448220661       -0.6000202812       -1.0985382229
H                -9.0292865554        0.7952148532       -1.7453198796
H               -10.1741060156        1.0958790702        2.3730935951
H                -8.1716760319       -0.2882656626        3.0278701558
H                -2.3761999936       -2.6978411960        0.9119869376



