%chk=calculation/no_transfer_pubchem_sampling_0_b3lyp/56291876_rwf.chk
%rwf=calculation/no_transfer_pubchem_sampling_0_b3lyp/56291876_rwf.rwf
%nprocshared=14
%mem=3GB
#p b3lyp/6-31g(d) 6D 10F nosymm GFInput td=(50-50,nstate=2) SCF=XQC 

Gaussian input prepared by ASE

0 1
C                -5.7238297936        1.8993539452        1.2598766427
C                -6.3505058538        0.7341455715        0.4833187996
C                -7.8543622021        0.9494528393        0.2586661372
C                -5.6635747219        0.5161114663       -0.8674630381
O                -4.2498904281        0.2512195825       -0.7323928535
C                -3.9099288280       -1.0512861834       -0.5216604547
O                -4.7113786807       -1.9687120840       -0.4365388065
N                -2.5548517968       -1.1948019438       -0.4243193992
C                -1.6184992909       -0.0739338493       -0.5103455153
C                -0.2233548560       -0.5839809569       -0.8782535945
N                 0.2527557303       -1.5675613585        0.0975738915
C                 1.5129157836       -1.6129013079        0.6476095453
O                 1.7269592198       -2.2521438210        1.6800622979
C                 2.6318857280       -0.9050752943       -0.0262363224
C                 2.8744500560       -0.5591912412       -1.3382193456
C                 4.1518547612        0.0186134015       -1.5438339255
C                 4.9049139018        0.1075114935       -0.3883238762
C                 6.2622817008        0.6334860855       -0.2037583019
C                 7.0573598570        0.2649715179        0.9003682889
C                 8.3385735300        0.7747696358        1.0877392073
C                 8.8764506909        1.6749398648        0.1655130095
C                 8.1213494822        2.0590744343       -0.9416707436
C                 6.8448815082        1.5401945211       -1.1055342591
F                 6.1422859748        1.9460190778       -2.1889291492
S                 4.0156271987       -0.5419051937        0.9712673780
C                -0.7690877599       -2.3915836241        0.7620564491
C                -2.0088218687       -2.5178516862       -0.1162727487
H                -6.1877329035        2.0052694623        2.2472048579
H                -4.6491703865        1.7494254792        1.4045135109
H                -5.8617344423        2.8478866773        0.7236671879
H                -6.2177517033       -0.1902408600        1.0602189307
H                -8.3107239562        0.0971496307       -0.2581543865
H                -8.3745039088        1.0787834528        1.2141996691
H                -8.0411725600        1.8489216445       -0.3429232242
H                -6.1261266988       -0.3140219050       -1.4068998889
H                -5.7127902797        1.4225129563       -1.4802346606
H                -1.9583548245        0.6256344732       -1.2772005135
H                -1.5719334513        0.4761222944        0.4406269547
H                -0.2531484214       -1.0145895063       -1.8899027934
H                 0.4634140267        0.2639086661       -0.8984638930
H                 2.1764479228       -0.7408964184       -2.1469509146
H                 4.5116426224        0.3420439990       -2.5107960158
H                 6.6612615604       -0.4509224741        1.6146571319
H                 8.9191817721        0.4621912199        1.9503904697
H                 9.8771787200        2.0739360141        0.3018097071
H                 8.4984416159        2.7573942655       -1.6816266375
H                -0.3427711320       -3.3780755202        0.9595037189
H                -1.0328793564       -1.9593698907        1.7368434616
H                -2.7797527526       -3.0915214679        0.4012802637
H                -1.7634815057       -3.0604760853       -1.0405712488



