%chk=calculation/no_transfer_pubchem_sampling_0_b3lyp/60379059_rwf.chk
%rwf=calculation/no_transfer_pubchem_sampling_0_b3lyp/60379059_rwf.rwf
%nprocshared=14
%mem=3GB
#p b3lyp/6-31g(d) 6D 10F nosymm GFInput td=(50-50,nstate=2) SCF=XQC 

Gaussian input prepared by ASE

0 1
C                -7.4229094674        0.9054681463       -1.0951702161
C                -6.9102995071        0.6865632491        0.3399313412
C                -5.4604101972        0.2545726176        0.3903277168
C                -4.4251928665        1.1888911022        0.4919439486
C                -3.0872126481        0.7979455786        0.5008906678
C                -2.7409604923       -0.5593765156        0.4045594076
N                -1.3737716523       -0.9348346263        0.3961937986
C                -0.3133407278        0.0674522493        0.2573800852
C                 0.9578581601       -0.7639760306       -0.0253080152
C                 2.2066332651       -0.0834225629        0.5082152930
O                 2.3325048125        0.2756998361        1.6797543906
N                 3.1897506196        0.1306938370       -0.4023083440
N                 4.3942899184        0.6649444293        0.0366155044
C                 5.4929639621        0.4717090653       -0.7545839661
O                 5.3751005056       -0.0325213956       -1.8728334120
C                 6.7808228317        0.9452358776       -0.1803541620
C                 8.0303861173        0.1603455363       -0.5472676969
C                 7.8069656180        1.5081284351       -1.1503869051
C                 0.6541681612       -2.0942875250        0.6832016755
C                -0.8684865155       -2.2016958237        0.6536880854
O                -1.5063833802       -3.2222722417        0.8444297963
C                -3.7709497363       -1.5115234330        0.3056838479
C                -5.0994296624       -1.0964774076        0.3021733549
H                -6.8408135870        1.6812464807       -1.6054797877
H                -7.3395268162       -0.0136591590       -1.6860608796
H                -8.4747039735        1.2146232151       -1.0934037554
H                -7.0368151978        1.6145252622        0.9121865274
H                -7.5352611730       -0.0692443837        0.8326538617
H                -4.6630376743        2.2474405163        0.5742213425
H                -2.3208121603        1.5584394217        0.6020848748
H                -0.5436940345        0.7564113477       -0.5608960526
H                -0.1894293914        0.6464701509        1.1810713118
H                 1.0437613854       -0.9324703497       -1.1052035737
H                 3.2640129832       -0.2798828657       -1.3269084505
H                 4.4012081222        0.8363775204        1.0358301183
H                 6.7349396016        1.3854956889        0.8124863767
H                 7.8786673293       -0.7058660509       -1.1835180584
H                 8.7852773385        0.0465007301        0.2250302690
H                 8.4039933519        2.3464593951       -0.8040600182
H                 7.5034834732        1.5482700127       -2.1916809335
H                 0.9784878544       -2.0537109742        1.7304885446
H                 1.1100606462       -2.9707117049        0.2170582963
H                -3.5229186153       -2.5616779269        0.2500828329
H                -5.8789755809       -1.8522937250        0.2298799571



