%chk=./calculation/no_transfer_pubchem_sampling_0_b3lyp/60580044.chk
%nprocshared=7
%mem=6GB
#p b3lyp/6-31g(d) opt SCF=XQC 

Gaussian input prepared by ASE

0 1
C                -2.5473313352        3.9867130958        0.2721698576
C                -3.1874160018        3.1752502389       -0.8450660343
O                -3.6941272865        1.9285941664       -0.3683436652
C                -2.8009636226        0.9254068953       -0.2474187688
O                -1.6303371795        1.0090740411       -0.5545955192
N                -3.3935971178       -0.1713096308        0.2563796329
C                -2.7396566926       -1.4590666538        0.4230649212
C                -1.8722042533       -1.4500124365        1.6991274260
N                -0.6188087963       -0.7750075201        1.4681920059
C                 0.5614785118       -1.4304160768        1.5546727481
O                 0.6634087357       -2.5505297876        2.0207423263
C                 1.7507112073       -0.6538975669        1.0882506382
C                 2.9844536794       -0.9570344996        1.6600308021
C                 4.1266339215       -0.2903919421        1.2707591249
C                 4.0506660872        0.6865625117        0.2813276237
N                 5.2255288842        1.3527266995       -0.0975937456
C                 5.3565732128        2.4597453996       -0.8669999671
C                 6.6976896556        2.7426503976       -0.9500466896
C                 7.3063582478        1.7330921142       -0.1845289815
C                 8.7588548404        1.5361965378        0.0727914285
F                 9.4882695263        2.5521482993       -0.4196000262
F                 9.2426539132        0.4173759378       -0.4939967052
F                 9.0539778156        1.4555864963        1.3794308783
N                 6.4033755130        0.9102783636        0.3197380136
C                 2.8289564570        0.9737653828       -0.3187723404
C                 1.6855298240        0.3095869646        0.0855063495
C                -3.7818316297       -2.5779139114        0.4547656297
C                -4.3362706395       -2.9825127688       -0.9185262341
C                -5.1626849782       -1.8794026276       -1.5755247741
C                -5.1868159765       -4.2431294659       -0.7647236031
H                -1.6750637518        3.4652156295        0.6589943598
H                -2.2365451648        4.9534025774       -0.1132045920
H                -3.2570014278        4.1383061457        1.0818697418
H                -4.0572894303        3.6902421600       -1.2571597898
H                -2.4587357576        2.9825838962       -1.6390716330
H                -4.3636302326       -0.0927394191        0.5161531941
H                -2.0684637974       -1.6018541696       -0.4330541180
H                -2.4203248167       -0.9578429206        2.5103719257
H                -1.6196385237       -2.4680439141        2.0066211369
H                -0.6699687726        0.0929618751        0.9536019466
H                 3.0245202008       -1.7258926447        2.4162380826
H                 5.0854367405       -0.5107963763        1.7110243280
H                 4.5209048415        2.9783169449       -1.2869191176
H                 7.1806120986        3.5427923393       -1.4698682859
H                 2.7601071121        1.7025101896       -1.1106924563
H                 0.7541610891        0.5383020260       -0.4103525519
H                -3.3107547242       -3.4585197343        0.8935335805
H                -4.6043599538       -2.2853657956        1.1121781400
H                -3.4885599213       -3.2160847092       -1.5716441059
H                -5.5841554123       -2.2413054235       -2.5106663932
H                -5.9859802494       -1.5808205101       -0.9291197900
H                -4.5549896688       -1.0070153798       -1.7977651881
H                -5.5636544837       -4.5680532872       -1.7312216728
H                -4.6027375545       -5.0538893102       -0.3362745051
H                -6.0369649625       -4.0505388438       -0.1136935886



