%chk=calculation/no_transfer_pubchem_sampling_0_b3lyp/61754846_rwf.chk
%rwf=calculation/no_transfer_pubchem_sampling_0_b3lyp/61754846_rwf.rwf
%nprocshared=14
%mem=3GB
#p b3lyp/6-31g(d) 6D 10F nosymm GFInput td=(50-50,nstate=2) SCF=XQC 

Gaussian input prepared by ASE

0 1
C                -3.1034863448       -4.1440645482        1.7936033433
C                -2.9764351526       -3.0923528193        0.6874385103
C                -1.9045762290       -2.0416117220        0.9861798104
N                -1.8623916771       -1.0282194009       -0.0685030092
C                -0.8579545478        0.0315512623        0.1105839785
C                 0.5380260831       -0.4434257380       -0.3472795640
O                 1.5164075744        0.5183291050        0.0133996762
C                 2.7868928188        0.3491973688       -0.5972139829
C                 3.6341586909       -0.7242120807        0.1015766396
O                 4.9127251069       -0.8659470234       -0.4959715881
C                 5.8703182415        0.0755241748       -0.0501540348
C                -1.2640095495        1.3243544105       -0.5951196990
C                -1.8360806140        1.2567010749       -1.8710772195
C                -2.2004474661        2.4055153367       -2.5718160899
C                -1.9962618444        3.6551475026       -1.9901585243
C                -1.4341999604        3.7342352477       -0.7168983974
C                -1.0596900783        2.5884185968       -0.0020422546
C                -0.4627660463        2.7434217318        1.3804036879
H                -3.3783196353       -3.6826293887        2.7499070149
H                -2.1599677433       -4.6828460379        1.9444390284
H                -3.8731595088       -4.8842087675        1.5491234302
H                -2.7375001373       -3.5908113301       -0.2639646492
H                -3.9335179193       -2.5786267219        0.5360144725
H                -2.1512657088       -1.5309478186        1.9270467318
H                -0.9363233371       -2.5523209535        1.1557672590
H                -1.7316179042       -1.4872755464       -0.9688411558
H                -0.7977825491        0.2217975564        1.1864279817
H                 0.5294219052       -0.5802283418       -1.4424580951
H                 0.7565420422       -1.4200509493        0.1116360401
H                 2.6808771922        0.0968891735       -1.6631953611
H                 3.2817560505        1.3236740946       -0.5318846961
H                 3.7174043064       -0.4851032351        1.1736405530
H                 3.1505145847       -1.7032307297        0.0142318042
H                 6.8145625135       -0.1801226115       -0.5383321455
H                 6.0081081712        0.0233538685        1.0415538786
H                 5.6091925261        1.1104641076       -0.3168444153
H                -2.0189029280        0.2859548296       -2.3242494541
H                -2.6442319991        2.3218829931       -3.5604835341
H                -2.2756673828        4.5626160667       -2.5193054483
H                -1.2813112036        4.7092338232       -0.2592030875
H                -1.0992604870        2.2895060183        2.1519912130
H                -0.3504715471        3.8021677402        1.6346729706
H                 0.5206926939        2.2682996809        1.4453583817



