%chk=./calculation/no_transfer_pubchem_sampling_0_b3lyp/63274579.chk
%nprocshared=7
%mem=6GB
#p b3lyp/6-31g(d) opt SCF=XQC 

Gaussian input prepared by ASE

0 1
C                 2.7247517946        2.0847967081       -2.1001331788
N                 2.8823619486        1.6350875818       -0.7423593354
C                 4.1003448144        2.0783276559       -0.0961735566
C                 4.1023176122        1.2706039761        1.1978008570
C                 3.4764021730       -0.0781397418        0.7933300939
C                 2.4164598180       -0.5313675214        1.8066742274
N                 1.9453417950       -1.8766582377        1.5747766197
C                 2.8367875676       -2.9647918507        1.8855842459
C                 0.7675311623       -2.0995885387        0.9269855675
C                 0.3188789577       -3.3928883314        0.6044180997
C                -0.8986503581       -3.5263759199       -0.0288869653
C                -1.6452969138       -2.3991484286       -0.3405732874
C                -1.1255551428       -1.1620124615        0.0113151679
C                -1.8575047187        0.1139398871       -0.3091681157
N                -3.2836374643       -0.0652826055       -0.1082677128
C                -4.1669013125        1.0544751803       -0.4207413734
C                -3.8590644862        2.3218961651        0.3951720402
C                -5.5870115742        0.5784540947       -0.0931047369
C                -4.0792449019        1.3680340534       -1.9173486057
N                 0.0369508208       -1.0203283528        0.6281011333
C                 2.8764850133        0.1895859123       -0.5980194487
H                 1.7744573546        1.7178291426       -2.4857582704
H                 3.5329043771        1.7323022379       -2.7647160331
H                 2.7127613063        3.1741152584       -2.1166438594
H                 4.0676782961        3.1558684621        0.0745325963
H                 4.9975262268        1.8466612997       -0.7006729974
H                 5.1010714278        1.1604065433        1.6168187133
H                 3.4672913158        1.7639465422        1.9331084157
H                 4.2488078167       -0.8490556695        0.7234434521
H                 1.5533801971        0.1311691645        1.7397118802
H                 2.8371581238       -0.4817525243        2.8177318201
H                 3.6846379297       -2.5755929394        2.4451909914
H                 3.2142145361       -3.4583303346        0.9832078814
H                 2.3342682806       -3.7122331066        2.5055411521
H                 0.9049262686       -4.2650854256        0.8401728417
H                -1.2649016281       -4.5106221071       -0.2868017726
H                -2.5982597517       -2.4622745415       -0.8377331737
H                -1.4102950579        0.9198980442        0.2935076643
H                -1.6865524656        0.3481985322       -1.3647886910
H                -3.4439859764       -0.3570283817        0.8513656423
H                -4.6022498544        3.0884576528        0.1903418204
H                -3.8763096824        2.1004018267        1.4611982278
H                -2.8797338890        2.7195007178        0.1398492492
H                -5.6855474251        0.3733122656        0.9710004882
H                -6.3177943779        1.3350419155       -0.3665604317
H                -5.8037743247       -0.3350262254       -0.6402415751
H                -4.8862899800        2.0371040601       -2.2047528676
H                -4.1645788643        0.4484993897       -2.4902292129
H                -3.1367290121        1.8495568250       -2.1642973329
H                 1.8539380215       -0.1800298077       -0.6797864258
H                 3.4902352060       -0.2938540419       -1.3797989281



