%chk=calculation/no_transfer_pubchem_sampling_0_b3lyp/63923484_rwf.chk
%rwf=calculation/no_transfer_pubchem_sampling_0_b3lyp/63923484_rwf.rwf
%nprocshared=14
%mem=3GB
#p b3lyp/6-31g(d) 6D 10F nosymm GFInput td=(50-50,nstate=2) SCF=XQC 

Gaussian input prepared by ASE

0 1
C                 8.1630995116        0.2917897094        1.0959878108
C                 6.7767382743        0.4907086965        0.4761136832
C                 6.2269855114       -0.7856928189       -0.1731462794
C                 4.8470066717       -0.6162053408       -0.7952127107
O                 3.9245727854       -0.3096809490        0.2502709724
C                 2.6167022028       -0.0877664061       -0.0689031087
C                 1.7701861352        0.2234273006        1.0079319042
C                 0.4217809627        0.4663440660        0.7901642098
C                -0.1267164113        0.4059559104       -0.5022427330
C                -1.5945104844        0.6945932393       -0.7362127932
N                -2.4362638381       -0.0609627557        0.1963149309
C                -3.8725707913        0.1743597934        0.1109401167
C                -4.5568599454       -0.4199378955        1.3636313752
C                -6.0846103868       -0.6147637417        1.2256228092
C                -6.7564669711        0.4654335969        0.3729639391
S                -6.2312435757        0.3082333093       -1.3730850957
O                -7.0640648771       -0.7273755668       -2.0097185194
O                -6.1360437606        1.6589659664       -1.9540737824
C                -4.5343939204       -0.3499753559       -1.1850734070
C                 0.7241152089        0.0880133352       -1.5607960319
C                 2.0872569598       -0.1560074154       -1.3616518106
H                 8.5319237311        1.2178783112        1.5509511317
H                 8.8958966739       -0.0240353644        0.3428826789
H                 8.1409497434       -0.4769975980        1.8781476818
H                 6.8224224761        1.2879249148       -0.2797730147
H                 6.0713139736        0.8326027571        1.2423043970
H                 6.1789610759       -1.5927299787        0.5700441825
H                 6.9100510848       -1.1267399179       -0.9638959389
H                 4.8519978769        0.1967532394       -1.5368179879
H                 4.5353161988       -1.5387690037       -1.3060029100
H                 2.1980368886        0.2695269099        2.0048290794
H                -0.2287139521        0.6964851108        1.6290396016
H                -1.8061646038        1.7596705984       -0.5621141672
H                -1.8276644625        0.5075721319       -1.7998051188
H                -2.2308850884       -1.0565307122        0.1203302884
H                -4.0017888796        1.2651105294        0.1181933213
H                -4.3265510225        0.2311561135        2.2137623748
H                -4.0953950795       -1.3901339198        1.5888567215
H                -6.3108844668       -1.5927035641        0.7834232718
H                -6.5471967057       -0.6196293353        2.2188645740
H                -6.5027166973        1.4788689088        0.6966039278
H                -7.8447870109        0.3601793974        0.3441281532
H                -4.0126011991       -0.0102053855       -2.0840788994
H                -4.6041581575       -1.4421261232       -1.1990835455
H                 0.3238909173        0.0284174898       -2.5708658281
H                 2.7140474238       -0.4010031875       -2.2112214543



