%chk=./calculation/no_transfer_pubchem_sampling_0_b3lyp/64976816.chk
%nprocshared=7
%mem=6GB
#p b3lyp/6-31g(d) opt SCF=XQC 

Gaussian input prepared by ASE

0 1
C                 5.3066146602        0.8277627726       -0.3682226484
C                 5.1604270467       -0.3465965539        0.5924338005
C                 3.7047023341       -0.6694287140        0.9255027486
C                 2.9387034214       -1.2492229749       -0.2692552310
N                 1.5569790729       -1.5355102884        0.0340420029
C                 1.2468855299       -2.8026966000        0.6510971832
C                 0.6444852829       -0.5453157293        0.0851251851
N                -0.5678849968       -0.6802487887        0.5046118599
C                -1.2852538464        0.4732544558        0.3590761356
C                -0.6214986417        1.5286928008       -0.1660288554
S                 1.0307919961        1.0750117563       -0.5245321122
C                -1.1947382869        2.8796775956       -0.4059393895
C                -2.4776825325        3.0161722900        0.4172564927
C                -3.3823205783        1.8042088695        0.2083564021
C                -2.7368076406        0.5255794005        0.7608043596
N                -3.4888019505       -0.6498958599        0.3525539328
C                -3.3506800819       -1.0499606663       -1.0431416340
C                -4.7253356142       -1.3578921134       -1.6323250038
H                 6.3563436425        1.0839076445       -0.4911159030
H                 4.9005143366        0.5899997640       -1.3476124270
H                 4.7821586052        1.6991945175        0.0165908099
H                 5.6391240656       -1.2313138754        0.1659478025
H                 5.6799731651       -0.1061706801        1.5227520792
H                 3.6772823391       -1.3916366882        1.7448270971
H                 3.1993911079        0.2384667470        1.2606500599
H                 3.4075323844       -2.1828178415       -0.5925596862
H                 2.9626123385       -0.5417214690       -1.1022604648
H                 1.7700357567       -2.9237917316        1.6041890006
H                 1.5392992669       -3.6139820647       -0.0186611289
H                 0.1756029568       -2.8410611752        0.8285027870
H                -1.4189366620        3.0067002074       -1.4715161485
H                -0.4743033862        3.6542138902       -0.1301109307
H                -2.2207043564        3.0953089268        1.4759401975
H                -3.0028506862        3.9278673419        0.1263667643
H                -3.5774297182        1.6798598485       -0.8574552175
H                -4.3407503498        1.9532016604        0.7067472269
H                -2.7858682300        0.5553750173        1.8581073044
H                -3.2465060145       -1.4249687618        0.9568409706
H                -2.7033323057       -1.9303155222       -1.1479541721
H                -2.8842902181       -0.2422022245       -1.6133014574
H                -5.3685918319       -0.4866955414       -1.5448732895
H                -5.1882841381       -2.1788251554       -1.0910895045
H                -4.6366102429       -1.6321844869       -2.6808009986



