%chk=calculation/no_transfer_pubchem_sampling_0_b3lyp/66874476_rwf.chk
%rwf=calculation/no_transfer_pubchem_sampling_0_b3lyp/66874476_rwf.rwf
%nprocshared=14
%mem=3GB
#p b3lyp/6-31g(d) 6D 10F nosymm GFInput td=(50-50,nstate=2) SCF=XQC 

Gaussian input prepared by ASE

0 1
O                 0.8819788500        0.0431013705        2.4140615216
C                 0.6348710413        0.0925181175        1.0281510326
C                 1.9982958656        0.0945860878        0.3446474414
C                 3.0224069255        0.9006279107        0.8596584136
C                 4.2645218286        0.9536130314        0.2294018247
C                 4.4997094986        0.2016640362       -0.9241473246
C                 3.4857582500       -0.6061803424       -1.4377064965
C                 2.2409125717       -0.6608356229       -0.8061545494
C                -0.2081776053        1.3334146389        0.6698601193
C                -0.8217807884        1.2097283610       -0.7258801518
C                -1.7725743735       -0.0104407880       -0.7738726849
C                -3.2560238839        0.3719317212       -0.6113393463
C                -4.1343099261       -0.8403636975       -0.4010291005
C                -3.6496888880       -1.9128606274        0.2488417922
C                -2.2691024823       -1.9436015017        0.7311177667
C                -1.3852127945       -1.0340079908        0.2807528006
O                -0.0621816192       -1.1142124877        0.6397462013
H                 0.0198619457        0.0617944839        2.8620324579
H                 2.8457148712        1.4720531939        1.7653032561
H                 5.0516809075        1.5787773491        0.6428073089
H                 5.4686315126        0.2421821612       -1.4148450649
H                 3.6617786024       -1.2024693513       -2.3292284682
H                 1.4604827146       -1.3061614964       -1.1934021383
H                 0.4263524123        2.2194618006        0.7635936353
H                -1.0119899071        1.4310950371        1.4147413916
H                -0.0182309377        1.1012099034       -1.4626508076
H                -1.3663806707        2.1249220296       -0.9857097467
H                -1.6640561161       -0.5122814688       -1.7500743799
H                -3.3644057481        1.0505184235        0.2550544076
H                -3.5774034393        0.9472684857       -1.4876499500
H                -5.1715035684       -0.8004282838       -0.7238957980
H                -4.2843485340       -2.7720451929        0.4536871219
H                -1.9455845153       -2.7145782919        1.4241305144



