%chk=./calculation/no_transfer_pubchem_sampling_0_b3lyp/67460090.chk
%nprocshared=7
%mem=6GB
#p b3lyp/6-31g(d) opt SCF=XQC 

Gaussian input prepared by ASE

0 1
C                 0.6353210756       -4.2084682441        0.1056465817
N                 0.0458454075       -2.9042681771       -0.1272834249
C                 0.8069294166       -1.9343271385       -0.7544114141
O                 1.9594885202       -2.2103457451       -1.0890802543
C                 0.1754410595       -0.6500788174       -0.9589608371
C                 0.9107360532        0.4648751240       -1.5995500733
O                 0.4061745148        1.5980406735       -1.6965790718
N                 2.1173395493        0.1903294581       -2.1023473942
C                 2.9927083095        1.2155578716       -2.5931410537
C                 4.1289874109        1.5369074637       -1.6191288832
O                 5.0862308844        2.1964296029       -1.9295824509
O                 3.8843232468        0.9928167362       -0.4411075867
C                 4.8056604506        1.1155369690        0.6733763325
C                 4.1198105114        0.3345327229        1.7941987603
C                 4.9753660174        2.5844490857        1.0550440638
C                 6.1454305224        0.4778108030        0.3108139967
C                -1.1243793846       -0.4076963866       -0.5353151836
O                -1.7024202131        0.7640252644       -0.6791581151
C                -1.8787949419       -1.4663786578        0.0855484479
C                -3.2154863436       -1.3446417686        0.5079551309
C                -3.9892390951       -0.0923939109        0.3737811836
C                -4.7779422214        0.1244020217       -0.6692735281
C                -5.5936095441        1.3656550518       -0.8487061724
C                -5.1432320921        2.4670421516        0.1058824521
C                -4.9905557625        1.8953066936        1.5105408019
C                -3.8613616198        0.8703893365        1.5244163697
C                -3.8194443643       -2.4529807059        1.0843818695
C                -3.0935320626       -3.6272046126        1.2227130976
N                -1.8440693342       -3.7618374804        0.8312669432
C                -1.2429494648       -2.7133071441        0.2700696914
H                 0.6349910584       -4.4263780577        1.1724230847
H                 0.0528518358       -4.9722052936       -0.4070197250
H                 1.6527181310       -4.1843168956       -0.2783648710
H                 2.4938972706       -0.7352498579       -1.8891752815
H                 2.4040039076        2.1284407111       -2.7374629251
H                 3.4329705814        0.9260139113       -3.5514120098
H                 3.1632147544        0.7913301562        2.0346226996
H                 4.7443147178        0.3278063766        2.6824381493
H                 3.9411918480       -0.6888105109        1.4740934737
H                 4.0038311325        3.0350615683        1.2469303073
H                 5.4623873217        3.1301319423        0.2514200653
H                 5.5828602295        2.6605864060        1.9524895641
H                 6.8020957618        0.4904849099        1.1760971775
H                 5.9943914659       -0.5529328186       -0.0029401607
H                 6.6190274063        1.0269298613       -0.4985344580
H                -1.0120162875        1.3722409257       -1.1197624652
H                -4.8489917454       -0.6147513927       -1.4564143281
H                -5.5109149459        1.7049627854       -1.8839902517
H                -6.6481895280        1.1248113620       -0.6726951062
H                -4.1799599742        2.8580743366       -0.2254393681
H                -5.8655724970        3.2853058167        0.1013500055
H                -4.7747605313        2.6904377748        2.2265321017
H                -5.9256926902        1.4161265491        1.8093204806
H                -2.8972488822        1.3796644024        1.4453656436
H                -3.8619241564        0.3118072567        2.4651220705
H                -4.8440962757       -2.3966562567        1.4158880583
H                -3.5341574147       -4.5090902098        1.6687017898



