%chk=calculation/no_transfer_pubchem_sampling_0_b3lyp/67460090_rwf.chk
%rwf=calculation/no_transfer_pubchem_sampling_0_b3lyp/67460090_rwf.rwf
%nprocshared=14
%mem=3GB
#p b3lyp/6-31g(d) 6D 10F nosymm GFInput td=(50-50,nstate=2) SCF=XQC 

Gaussian input prepared by ASE

0 1
C                 0.3151196863       -4.6520398195       -0.2201615067
N                -0.1491091110       -3.2657418471       -0.3681244177
C                 0.7386215682       -2.3251118326       -0.9044774382
O                 1.8868643105       -2.6841479686       -1.2146389699
C                 0.2364818115       -0.9703459929       -1.0707105889
C                 1.0769435038        0.0974437159       -1.6683939745
O                 0.6269771452        1.2684265266       -1.7962179860
N                 2.3166669666       -0.2171827831       -2.0865056036
C                 3.2288805597        0.7754640064       -2.5983380430
C                 4.2299544459        1.3669592426       -1.5972389301
O                 5.1355081192        2.0839594301       -1.9696450657
O                 3.9599615603        1.0051032191       -0.3381026674
C                 4.7721097674        1.4837795480        0.8020188011
C                 4.0840478848        0.8223470275        1.9980654038
C                 4.6850000670        3.0102108708        0.8947365622
C                 6.2139622529        0.9874234425        0.6562646638
C                -1.0599529335       -0.6325435139       -0.6752287252
O                -1.5355260566        0.5881571907       -0.8348720228
C                -1.9353724983       -1.6249499076       -0.0818940755
C                -3.2671045188       -1.3800496515        0.3522081903
C                -3.9333284646       -0.0427199265        0.3940295049
C                -4.9562650498        0.2219594641       -0.4317131981
C                -5.7120332916        1.5267679554       -0.4500965649
C                -5.0114184720        2.6170566229        0.3735852822
C                -4.5169466635        2.0464704407        1.7077033910
C                -3.4899334396        0.9265857897        1.4782345301
C                -4.0011130531       -2.4735375196        0.8168182892
C                -3.4137803787       -3.7375279455        0.8582305017
N                -2.1628389725       -3.9867172213        0.4835170262
C                -1.4411755559       -2.9552184047        0.0193913021
H                 0.2464896212       -4.9586101194        0.8255453163
H                -0.3098273213       -5.3207253263       -0.8158461095
H                 1.3460226306       -4.6821768870       -0.5631141354
H                 2.6192326877       -1.1704087570       -1.8794850300
H                 2.6474012500        1.6109264926       -2.9975684908
H                 3.8149276936        0.3566405571       -3.4223645467
H                 3.0406388372        1.1454991260        2.0704514802
H                 4.5980270691        1.0962965985        2.9254964810
H                 4.1013108413       -0.2678120971        1.8997279477
H                 3.6381541165        3.3297687444        0.9372648649
H                 5.1659314649        3.4869578908        0.0391671606
H                 5.1817264383        3.3484699899        1.8111264832
H                 6.7796484398        1.2411975921        1.5598506012
H                 6.2325176473       -0.1017314365        0.5396803455
H                 6.7049316501        1.4447120108       -0.2041909296
H                -0.7653072862        1.1234747065       -1.2629855257
H                -5.2568691708       -0.5296815162       -1.1609448777
H                -5.8410022911        1.8575298812       -1.4898274078
H                -6.7319864543        1.3597645625       -0.0673302304
H                -4.1532134563        3.0030846060       -0.1925620382
H                -5.6911060254        3.4615803973        0.5389520335
H                -4.0701863978        2.8342262311        2.3262676026
H                -5.3737674735        1.6502588480        2.2708407365
H                -2.5183078012        1.3535256044        1.2026417192
H                -3.3266945960        0.3710748708        2.4121894558
H                -5.0201972971       -2.3299039531        1.1586413152
H                -3.9796970065       -4.5942147757        1.2215261087



