%chk=./calculation/no_transfer_pubchem_sampling_0_b3lyp/69930042.chk
%nprocshared=7
%mem=6GB
#p b3lyp/6-31g(d) opt SCF=XQC 

Gaussian input prepared by ASE

0 1
O                -0.3838171192        0.3095534343       -2.2212648496
C                 0.0421791856        0.0526908877       -1.1144469435
C                 1.4461411645        0.2326913045       -0.7275811777
S                 2.7482248437        0.5215065640       -1.8274548033
C                 3.7785445943        0.7683563895       -0.4417365991
C                 5.2223791569        1.1171930307       -0.5692446335
O                 5.9341943051        0.8748920163        0.6088386536
N                 3.1897812031        0.6574726292        0.7052096754
C                 1.8826457158        0.3550578686        0.5658094149
C                 0.9259248721        0.1554523933        1.6906721173
C                -0.1509220565       -0.8022493711        1.1862781692
N                -0.7448045637       -0.3488351809       -0.0639695422
C                -2.1470412459       -0.4413238673       -0.2231723889
C                -2.9868383304        0.1066362061        0.7429960800
C                -4.3590557526        0.0273571279        0.6034344636
C                -4.8811465641       -0.5929318911       -0.5172150462
F                -6.2203148766       -0.6716435674       -0.6561916871
C                -4.0670466889       -1.1330411508       -1.4953959768
C                -2.6951623241       -1.0594986006       -1.3425074796
H                 5.2964377248        2.1822842835       -0.8553740302
H                 5.6884378842        0.5276279504       -1.3649010583
H                 5.3380052874        1.0328806619        1.3525552317
H                 1.4355115653       -0.2620967926        2.5583598615
H                 0.4918449647        1.1179717344        1.9780686694
H                 0.3066201392       -1.7878494589        1.0177696854
H                -0.9457703866       -0.9215952003        1.9221819476
H                -2.5706182715        0.6116952268        1.6016366779
H                -5.0210164170        0.4482729357        1.3434294845
H                -4.5058210013       -1.6067008709       -2.3588293110
H                -2.0475000085       -1.4718256929       -2.0979556050



