%chk=calculation/no_transfer_pubchem_sampling_0_b3lyp/72703130_rwf.chk
%rwf=calculation/no_transfer_pubchem_sampling_0_b3lyp/72703130_rwf.rwf
%nprocshared=14
%mem=3GB
#p b3lyp/6-31g(d) 6D 10F nosymm GFInput td=(50-50,nstate=2) SCF=XQC 

Gaussian input prepared by ASE

0 1
C                -1.7228034318       -5.3038977702        1.2864276589
C                -0.5304188385       -5.3309447801        1.0994369360
C                 0.9186818408       -5.3827276890        0.8725171747
O                 1.4190008169       -4.3116702377        0.0776278823
C                 1.5289474810       -3.0639815100        0.6409933660
C                 1.1066264253       -2.7233394022        1.9302055672
C                 1.2853482930       -1.4175958958        2.3883533758
C                 1.8615226882       -0.4388498877        1.5781598303
O                 2.0755453145        0.8413167565        2.0478503261
C                 1.0111796023        1.5730762358        2.6946569995
C                 0.1484551555        2.3509929990        1.6924923245
O                 0.9394328427        3.1421433447        0.8191809087
C                -0.8486276549        1.4769883637        0.9043603642
N                -1.7979329440        0.8288426216        1.8033744298
C                -2.4021590641       -0.4451399620        1.4126339164
C                -3.5327894803       -0.4808829594        0.3500953438
C                -3.0390896963       -0.1112894498       -1.0710380403
C                -4.1883172708       -0.2231346906       -2.0957729372
C                -5.3256232645        0.7382199693       -1.6924998580
C                -5.8466517811        0.3622904994       -0.2899815254
C                -6.3788683606       -1.0854206714       -0.3134402424
C                -5.2412796052       -2.0458644625       -0.7172574690
C                -4.7224867534       -1.6690336957       -2.1196642356
C                -4.0905212368       -1.9278241942        0.3020633816
C                -4.6935496431        0.4694720822        0.7306148826
C                 2.2981861122       -0.7776781066        0.2764288317
C                 2.9462335248        0.1524765067       -0.7266404441
O                 3.1539020057       -0.2166664260       -1.8799456049
N                 3.2679006950        1.4211034904       -0.3062455813
C                 4.0596804165        2.3078375086       -1.1595010753
C                 5.5639226777        1.9978259978       -1.1256195073
C                 6.4124548772        2.8686485115       -2.0728454611
C                 7.8562559772        2.3469267704       -2.1255483792
C                 6.3908500148        4.3565530731       -1.6876099850
C                 2.1206336704       -2.0920706792       -0.1654436596
H                -2.7770686100       -5.2743174898        1.4462050916
H                 1.1732810966       -6.2854138613        0.3084792546
H                 1.4541654177       -5.4298677948        1.8318405605
H                 0.6288967120       -3.4474359855        2.5795432289
H                 0.9678286930       -1.1614927118        3.3934159764
H                 0.3790219705        0.9094041039        3.2899139028
H                 1.5298181601        2.2731241816        3.3542775991
H                -0.4343341860        3.0673524315        2.2892514989
H                 1.4626923153        2.5336188524        0.2643542836
H                -0.3048129189        0.6966092511        0.3599698149
H                -1.3050992375        2.1294097748        0.1435348141
H                -2.5081157662        1.4868962804        2.1130870694
H                -1.5877342023       -1.1057960686        1.0879517605
H                -2.8095620240       -0.8914422839        2.3323805547
H                -2.6447404736        0.9116547980       -1.0819184307
H                -2.2110880332       -0.7743753525       -1.3597835828
H                -3.8124202637        0.0477330848       -3.0912587439
H                -6.1433722835        0.6854169265       -2.4245780956
H                -4.9622243962        1.7754378430       -1.6951565374
H                -6.6542083142        1.0476668872        0.0004508235
H                -7.2140488846       -1.1686600497       -1.0226271444
H                -6.7719702450       -1.3596389687        0.6757293608
H                -5.6161922286       -3.0783952743       -0.7266984259
H                -5.5296346786       -1.7628762285       -2.8594657874
H                -3.9258745447       -2.3608687162       -2.4262733889
H                -4.4480027650       -2.2161165450        1.3019926099
H                -3.2812647742       -2.6257123859        0.0413881189
H                -5.0606988529        0.2234342198        1.7386171601
H                -4.3333261452        1.5078551202        0.7669753158
H                 3.2707557356        1.5795336841        0.6953239615
H                 3.8568228638        3.3323594260       -0.8319386610
H                 3.6818133913        2.1973685671       -2.1793839996
H                 5.9364173775        2.1096585570       -0.0960195046
H                 5.6912377812        0.9432061585       -1.3978646760
H                 5.9851321045        2.7731362377       -3.0829887551
H                 8.4635322600        2.9309193627       -2.8273276770
H                 7.8901797191        1.2980570261       -2.4424555932
H                 8.3334836101        2.4133701349       -1.1388863329
H                 5.3813884864        4.7810352005       -1.7206648428
H                 6.7818532507        4.5021441759       -0.6717131375
H                 7.0155337311        4.9454139257       -2.3696328900
H                 2.4482977445       -2.3461067558       -1.1669390488



