%chk=./calculation/no_transfer_pubchem_sampling_0_b3lyp/72703130.chk
%nprocshared=7
%mem=6GB
#p b3lyp/6-31g(d) opt SCF=XQC 

Gaussian input prepared by ASE

0 1
C                -2.1776983131       -4.8947941119        1.7522853793
C                -1.1120922033       -5.0982806969        1.2471368905
C                 0.1797712465       -5.2715873506        0.6018262403
O                 0.5956953844       -4.1377142313       -0.1381903069
C                 0.9233711862       -2.9965712811        0.5261348967
C                 0.8482081307       -2.8159591696        1.9028405488
C                 1.2040756749       -1.5995692104        2.4586593186
C                 1.6464626703       -0.5442247421        1.6735191775
O                 2.0229889361        0.6551351721        2.2345973435
C                 1.0872752493        1.3302487990        3.0639488273
C                 0.2543100220        2.3364517765        2.2451927228
O                 1.0814432912        3.1952439921        1.5048052985
C                -0.7498528868        1.6044773940        1.3304639568
N                -1.6776688164        0.8331007586        2.1321277968
C                -2.1151946377       -0.4512605624        1.6287186391
C                -3.0497586252       -0.5142568180        0.3936139814
C                -2.2873161037       -0.2740828871       -0.9130592442
C                -3.2299434883       -0.4193603544       -2.1076857492
C                -4.3580596134        0.6046486275       -1.9906035615
C                -5.1316351118        0.3581993284       -0.6962926294
C                -5.7246692207       -1.0492481312       -0.7211998251
C                -4.5942431223       -2.0696288753       -0.8437286200
C                -3.8181426680       -1.8275949634       -2.1357286513
C                -3.6517756946       -1.9249222562        0.3486077929
C                -4.1891189459        0.5032404705        0.4991553483
C                 1.7462823397       -0.7268970794        0.2847292118
C                 2.1650599775        0.3371963544       -0.6818313450
O                 1.7488467564        0.3566681385       -1.8246977857
N                 3.0070305892        1.2776248465       -0.1903098629
C                 3.6052849843        2.2917277427       -1.0318081370
C                 5.0825477635        1.9954136820       -1.2952215013
C                 5.7220192200        2.9530275809       -2.3058161898
C                 7.1226479210        2.4601018941       -2.6662963936
C                 5.7952134606        4.3795087100       -1.7660650831
C                 1.3716489023       -1.9429939098       -0.2652701227
H                -3.1142455800       -4.7473205876        2.2010499767
H                 0.1079220288       -6.0740351284       -0.1404972819
H                 0.9371899996       -5.5473217550        1.3515703497
H                 0.4954410923       -3.6006094236        2.5529408022
H                 1.1339167884       -1.4702525375        3.5280671121
H                 0.4045267627        0.6385380298        3.5612577290
H                 1.6861879776        1.8674198341        3.8038639310
H                -0.2942717712        2.9734778332        2.9471694411
H                 1.6298578612        2.6425052807        0.9285533940
H                -0.1985914254        0.9288619197        0.6743541941
H                -1.2338294126        2.3640729019        0.6991361204
H                -2.4719685023        1.3982400304        2.4065075223
H                -1.2213956096       -1.0423419483        1.4114143299
H                -2.6317437403       -0.9325207309        2.4672133162
H                -1.8580852460        0.7277199112       -0.9260352128
H                -1.4655489807       -0.9892979801       -0.9978234108
H                -2.6662618175       -0.2392665095       -3.0293797504
H                -5.0311640496        0.5189820495       -2.8468993715
H                -3.9438827083        1.6156618765       -1.9909979237
H                -5.9407042036        1.0932598953       -0.6075447443
H                -6.4103180538       -1.1481051942       -1.5659065389
H                -6.2933879257       -1.2307874422        0.1943046474
H                -5.0144326685       -3.0824075746       -0.8524946742
H                -4.4810475797       -1.9397792050       -2.9970030447
H                -3.0161306715       -2.5630228786       -2.2291964956
H                -4.2037434240       -2.1151487010        1.2733896924
H                -2.8470393049       -2.6612052890        0.2807173079
H                -4.7424904883        0.3455711009        1.4296091671
H                -3.7851262463        1.5188203805        0.5126740677
H                 3.3885142532        1.1532081282        0.7353222737
H                 3.4879498257        3.2653555118       -0.5479922499
H                 3.0481731997        2.2867811602       -1.9716098079
H                 5.6355812805        2.0412796890       -0.3530771752
H                 5.1589954508        0.9753010748       -1.6794458414
H                 5.1095661164        2.9529765368       -3.2139120859
H                 7.5803364368        3.1162125100       -3.4028493015
H                 7.0830453940        1.4556351378       -3.0812402980
H                 7.7573623050        2.4422807545       -1.7825771273
H                 4.8031825322        4.7891810219       -1.5976650572
H                 6.3448067726        4.4023974370       -0.8271613746
H                 6.3085681827        5.0230392333       -2.4768732852
H                 1.4212708940       -2.0664229900       -1.3359646840



