%chk=./calculation/no_transfer_pubchem_sampling_0_b3lyp/72840705.chk
%nprocshared=7
%mem=6GB
#p b3lyp/6-31g(d) opt SCF=XQC 

Gaussian input prepared by ASE

0 1
C                -4.4926739599        3.3266960126       -0.3982164065
N                -3.9162985273        2.0298780528       -0.1337738799
C                -3.4719615289        1.9090233076        1.2441513698
C                -3.1050664221        0.4414063537        1.5404550618
N                -2.7928773125       -0.3139631248        0.3427257014
C                -1.6057652624        0.1154134369       -0.4082406143
C                -0.4316572095        0.4293562285        0.5281643713
C                 0.8660281092        0.7275206384       -0.2315550759
N                 1.1416990335       -0.2652513364       -1.2354855749
C                 2.2819288044       -0.9758226687       -1.3891403396
O                 2.4454314683       -1.7632899530       -2.3025129281
C                 3.3553901828       -0.7530842865       -0.3657428698
C                 3.6408305501       -1.7388866839        0.5469644960
C                 4.6790908942       -1.5218263350        1.4699471943
N                 5.4073695597       -0.4423199703        1.5115013705
C                 5.1788660331        0.5245042732        0.5993805473
C                 5.9907549504        1.6778487009        0.6220094144
C                 5.8030691604        2.6722849881       -0.2962469748
C                 4.8035828695        2.5593743361       -1.2760434293
C                 3.9944637200        1.4582802478       -1.3200713405
C                 4.1549653300        0.4182094540       -0.3822958382
C                 0.0593080407       -0.4298470999       -2.1731622392
C                -1.2026178014       -0.9408919815       -1.4674618469
C                -1.0276769961       -2.4247327629       -1.0470777485
C                -1.1374549546       -2.8244865542        0.4310359172
C                 0.2194190034       -2.9816790882        1.1194819887
O                 1.0270428830       -3.9776601418        0.5361630060
C                -4.0106930414       -0.3909796577       -0.4515767986
C                -4.8048795294        0.9353925722       -0.4748617480
H                -3.7579059425        4.0948496897       -0.1585563257
H                -4.7419264000        3.3994053961       -1.4560355304
H                -5.4028043010        3.5183336713        0.1930029379
H                -2.6037448085        2.5634710998        1.3691282643
H                -4.2508814465        2.2442420061        1.9537858548
H                -3.9617846902       -0.0634819094        1.9974354244
H                -2.2820177901        0.3872779959        2.2521871998
H                -1.8317754490        1.0389256227       -0.9699626602
H                -0.6589648346        1.3170689179        1.1187970514
H                -0.2751668500       -0.4012287062        1.2107481522
H                 0.7718662954        1.7048065483       -0.7271481180
H                 1.6946104642        0.7840260584        0.4765756568
H                 3.0806289737       -2.6607477129        0.5581130442
H                 4.9113240432       -2.2764799244        2.2109290393
H                 6.7601896123        1.7367397700        1.3757141034
H                 6.4290818458        3.5524719037       -0.2808590495
H                 4.6815869048        3.3510532658       -2.0007766112
H                 3.2357698813        1.3606190243       -2.0832445905
H                -0.1492548065        0.5381275959       -2.6480333637
H                 0.3859873553       -1.1353998155       -2.9392849884
H                -1.9793218232       -0.9265023154       -2.2382024930
H                -1.7811018358       -2.9954121970       -1.5926241467
H                -0.0542029507       -2.7684252208       -1.4044236147
H                -1.7560298307       -2.1126388280        0.9726600233
H                -1.6384912984       -3.7963451037        0.4839658582
H                 0.8150762261       -2.0711116849        1.0441771756
H                 0.0588624333       -3.2050383818        2.1869402197
H                 0.5104393377       -4.7862302309        0.4467126630
H                -4.6343393546       -1.1802585392       -0.0173549698
H                -3.7609821524       -0.6908999436       -1.4657296012
H                -5.6616694789        0.8856837342        0.2218042171
H                -5.2026753770        1.1126302556       -1.4759846083



