%chk=calculation/no_transfer_pubchem_sampling_0_b3lyp/78811510_rwf.chk
%rwf=calculation/no_transfer_pubchem_sampling_0_b3lyp/78811510_rwf.rwf
%nprocshared=14
%mem=3GB
#p b3lyp/6-31g(d) 6D 10F nosymm GFInput td=(50-50,nstate=2) SCF=XQC 

Gaussian input prepared by ASE

0 1
C                -3.9574090208        1.6572229089       -0.7377452461
N                -4.3229285538        0.9930797590        0.5018042050
C                -3.6058513857        1.4555897532        1.6806093567
C                -2.0641952132        1.2990079079        1.6722935434
C                -1.5564636245       -0.1491423411        1.7197317839
N                -2.1716979390       -1.0221713539        0.7184941675
C                -1.6226620575       -1.4074401594       -0.4798875776
O                -2.2618353973       -2.0920592367       -1.2786149291
C                -0.1760528435       -1.0139654963       -0.7931236125
C                 0.7995523322       -2.0965151327       -0.2459013030
C                 2.0973223078       -2.1543042194       -1.0803496966
N                 2.3911547882       -0.8292180587       -1.6371033845
S                 3.9054330054       -0.1731171389       -1.5157641351
O                 3.9924530500        0.8988112515       -2.5069835598
O                 4.9022557898       -1.2472699229       -1.4567117851
C                 3.9460459300        0.5877313374        0.1259600711
C                 4.9948485778        0.2649233798        0.9888844503
C                 5.0584669520        0.8853471590        2.2309006064
F                 6.0678547335        0.5709397909        3.0646587397
C                 4.1128042450        1.8198483916        2.6388389197
C                 3.0649014880        2.1403741081        1.7752596201
C                 2.9951886448        1.5259374324        0.5319329642
F                 1.9640858024        1.8377425036       -0.2829749699
C                 1.4216161901       -0.2867317241       -2.6126778557
C                 0.0257578351       -0.8623944859       -2.3093315457
C                -3.5585159123       -1.4058894492        0.9854115821
C                -4.6087693194       -0.4370500042        0.3959211743
H                -3.9364750881        2.7417982279       -0.5732111584
H                -4.7171965039        1.4552957912       -1.5003872769
H                -2.9786739801        1.3636892813       -1.1597672257
H                -4.0251944214        0.9494614535        2.5610501532
H                -3.8282542813        2.5241788958        1.8102688364
H                -1.6592613804        1.7952928431        0.7810868261
H                -1.6525159373        1.8346079996        2.5400012992
H                -1.7758612787       -0.5816556448        2.7056327772
H                -0.4705049729       -0.1726580389        1.6123719205
H                 0.0770080052       -0.0537817540       -0.3333393285
H                 0.3168303576       -3.0801086778       -0.2826249410
H                 1.0334114087       -1.8895263435        0.8049825953
H                 2.9455611545       -2.4834222741       -0.4779892627
H                 1.9986912662       -2.8764484425       -1.9018364149
H                 5.7422413200       -0.4600117816        0.6882334308
H                 4.2004316653        2.2825604953        3.6158655112
H                 2.3048970405        2.8637105408        2.0510870192
H                 1.4174065608        0.8002774205       -2.5162357221
H                 1.7236391861       -0.5292726137       -3.6395832748
H                -0.1197389899       -1.8345801150       -2.7895601397
H                -0.7302063020       -0.1966216213       -2.7383519528
H                -3.7290024860       -2.4036583805        0.5732970275
H                -3.6699809289       -1.4664993165        2.0735000432
H                -5.5667626871       -0.6684266633        0.8900868627
H                -4.7338461317       -0.6734872419       -0.6641351889



