%chk=./calculation/no_transfer_pubchem_sampling_0_b3lyp/7993704.chk
%nprocshared=7
%mem=6GB
#p b3lyp/6-31g(d) opt SCF=XQC 

Gaussian input prepared by ASE

0 1
C                -0.8709301411        3.0836813071        1.0920057508
C                -0.9696726737        2.2811339606        0.0495544801
C                -1.8925797392        1.0999778025       -0.0125280048
O                -1.1774321450       -0.0218248476       -0.5263879415
C                -1.1218816750       -1.1680360671        0.2186958730
C                 0.1106027518       -1.8338106580        0.2646842437
C                 1.2896210910       -1.2372590931       -0.4533598845
N                 1.8053055784       -0.0925565072        0.2919322159
C                 2.6317763239        0.8125896202       -0.4962409198
C                 3.9590154270        0.1314723535       -0.8498996433
C                 4.8752088684        1.0137797188       -1.6875536939
C                 2.8550261632        2.0995713685        0.3094075976
O                 3.0038104158        3.1835199178       -0.5829100911
C                 0.2257473412       -3.0095660705        0.9863733247
C                -0.8588192293       -3.5363254368        1.6649877284
C                -2.0823525383       -2.8996567866        1.5973169117
C                -2.2290471730       -1.7264256819        0.8697186553
O                -3.4801533778       -1.1309518578        0.8186075064
C                -4.1844214798       -1.3886155658       -0.3876625728
C                -5.5029863356       -0.6355780136       -0.3377280807
H                -1.4604391368        2.9343903005        1.9823582974
H                -0.2102893810        3.9340350094        1.0934500657
H                -0.3674286453        2.4343937816       -0.8352681772
H                -2.3111057763        0.8869437353        0.9735326923
H                -2.7172623864        1.3210764903       -0.7055274681
H                 0.9785621708       -0.9469707682       -1.4716456812
H                 2.0821557961       -1.9861279350       -0.5319787169
H                 1.0087343252        0.4298485320        0.6459162327
H                 2.1299497538        1.1090226884       -1.4369120179
H                 3.7447474778       -0.7794204728       -1.4103837205
H                 4.4538608250       -0.1569170591        0.0796168268
H                 5.7793585479        0.4697791588       -1.9524967810
H                 5.1583802237        1.9118858944       -1.1474993583
H                 4.3720432883        1.3181870894       -2.6020225421
H                 1.9873591516        2.2699308996        0.9638412183
H                 3.7414322323        1.9906052536        0.9478321327
H                 3.1903316332        3.9807822068       -0.0771004464
H                 1.1822499578       -3.5082870348        1.0235682178
H                -0.7549347634       -4.4468022990        2.2349187668
H                -2.9498925243       -3.2989685156        2.1003993254
H                -4.3628135646       -2.4701984008       -0.4832072674
H                -3.5875326976       -1.0671891152       -1.2526794144
H                -5.3213865426        0.4321917938       -0.2466016776
H                -6.0809945084       -0.9609428207        0.5228247310
H                -6.0709229101       -0.8263648755       -1.2439516930



