%chk=./calculation/no_transfer_pubchem_sampling_0_b3lyp/80069265.chk
%nprocshared=7
%mem=6GB
#p b3lyp/6-31g(d) opt SCF=XQC 

Gaussian input prepared by ASE

0 1
C                -5.8376732674        1.3237080547        0.3823397616
C                -4.3169007214        1.3921613614        0.3575190575
O                -3.8871502430        1.8486861387        1.6192926293
C                -3.6670854175        0.0269287493        0.0496872719
C                -4.0269847965       -0.4938221502       -1.3391451686
O                -2.2683219641        0.2621960139        0.1615180545
C                -1.4043918483       -0.7783606743        0.3457211182
C                -1.7621220502       -2.1130317562        0.4952161325
C                -0.7743250073       -3.0637916589        0.6941034815
C                 0.5588030785       -2.7074094667        0.7397034568
C                 0.9259723070       -1.3742098370        0.5935879705
C                 2.3730082494       -0.9615088960        0.6612996113
N                 2.6222840259        0.1580118329       -0.2252548756
C                 3.9463933409        0.7714663268       -0.2113386004
C                 3.9158775477        1.8701789873       -1.2796998595
C                 4.1923283609        1.4139920941        1.1573535515
C                 5.0820981967       -0.2148642758       -0.5354586892
C                -0.0577181112       -0.4219738346        0.4000139330
H                -6.1643676372        0.5406845932        1.0615894763
H                -6.2349761658        1.1362120792       -0.6098403961
H                -6.2207014736        2.2730186096        0.7454887656
H                -3.9890579229        2.1026533910       -0.4201599616
H                -2.9274129107        1.7453119377        1.6506346656
H                -3.9857078297       -0.6836910994        0.8253756269
H                -3.4049148472       -1.3499899502       -1.5899097115
H                -5.0689276782       -0.7964072765       -1.3742055110
H                -3.8531382888        0.2829434304       -2.0801120159
H                -2.7928995141       -2.4286517517        0.4625254624
H                -1.0585855451       -4.0996566011        0.8090546411
H                 1.3160627802       -3.4629787918        0.8899636086
H                 3.0036296784       -1.8423460207        0.4483788883
H                 2.5897870357       -0.6389080547        1.6850367995
H                 2.3869757011       -0.1147292679       -1.1746081736
H                 4.8464836723        2.4313975864       -1.2789068092
H                 3.7753624915        1.4387585996       -2.2688025863
H                 3.0933900320        2.5521553019       -1.0819737956
H                 4.3696252562        0.6618675532        1.9217571035
H                 5.0644558200        2.0609901484        1.1129285683
H                 3.3283251343        2.0074389528        1.4437704546
H                 6.0272778339        0.3163610364       -0.6122385905
H                 5.1784439969       -0.9680151623        0.2432396144
H                 4.8909309680       -0.7168681429       -1.4827822614
H                 0.2158477326        0.6140908901        0.2829323007



