%chk=calculation/no_transfer_pubchem_sampling_0_b3lyp/80277168_rwf.chk
%rwf=calculation/no_transfer_pubchem_sampling_0_b3lyp/80277168_rwf.rwf
%nprocshared=14
%mem=3GB
#p b3lyp/6-31g(d) 6D 10F nosymm GFInput td=(50-50,nstate=2) SCF=XQC 

Gaussian input prepared by ASE

0 1
C                 4.5052377825       -0.3623716953        2.3092827504
N                 4.1772296203       -0.9007088342        0.9941746192
C                 4.1970792226        0.0710387986       -0.0983335886
C                 3.1972265518        1.2478085666       -0.0270538474
C                 1.7129509193        0.8453552271        0.0200580773
C                 1.2018618309        0.2265399062       -1.2879832406
N                -0.1768305491       -0.2626476255       -1.2026543834
C                -0.4709293890       -1.2321624700       -2.2493579529
C                -1.1622339399        0.8218446250       -1.1869719168
C                -2.5153450304        0.3808105219       -0.6596314655
C                -3.6179330859        0.2361727988       -1.5045886752
C                -4.8363107590       -0.1677454462       -0.9551279718
C                -4.9079599310       -0.4093218193        0.4109481963
C                -3.7543261286       -0.2341757477        1.1932791667
C                -3.7826660176       -0.4730989165        2.6843254082
N                -2.5872096371        0.1545075447        0.6641705960
H                 3.8301620651        0.4270035177        2.6851028014
H                 4.5057946587       -1.1779527607        3.0406919117
H                 5.5187820036        0.0566337411        2.2804329426
H                 3.2726161124       -1.3657662511        1.0291171791
H                 4.0487211418       -0.4874161145       -1.0316415630
H                 5.2147594340        0.4821100832       -0.1497867907
H                 3.4236745717        1.8587141643        0.8561674117
H                 3.3740391281        1.8998841045       -0.8951845277
H                 1.5337427366        0.1294517474        0.8325703112
H                 1.1220872768        1.7344253190        0.2710457734
H                 1.3332335138        0.9501837689       -2.1197422137
H                 1.8267135647       -0.6384210400       -1.5393444171
H                 0.2302577113       -2.0708256799       -2.1836438180
H                -1.4823583361       -1.6282627673       -2.1162814580
H                -0.4043275844       -0.8074398055       -3.2720140223
H                -0.7955379090        1.6070608738       -0.5213730174
H                -1.2854846963        1.2720832104       -2.1930616191
H                -3.5225106660        0.4368106020       -2.5679752840
H                -5.7131783456       -0.2906413450       -1.5858218208
H                -5.8391752666       -0.7235381304        0.8748860463
H                -2.7937995425       -0.2798797930        3.1052644247
H                -4.5109006206        0.1810184058        3.1799500501
H                -4.0671524111       -1.5070822851        2.9161079275



