%chk=./calculation/no_transfer_pubchem_sampling_0_b3lyp/80277168.chk
%nprocshared=7
%mem=6GB
#p b3lyp/6-31g(d) opt SCF=XQC 

Gaussian input prepared by ASE

0 1
C                 4.3905850546       -0.6016116946        2.1644946139
N                 4.0740827785       -0.9418365196        0.7930041784
C                 4.1556177252        0.1592279911       -0.1430881812
C                 3.1590697767        1.3169460264        0.0591069318
C                 1.6907532587        0.8897004445        0.0892691385
C                 1.2042641032        0.3248302351       -1.2455508940
N                -0.1518810305       -0.1884993017       -1.1393330987
C                -0.4329489540       -1.2088970339       -2.1249865316
C                -1.1493892884        0.8720204170       -1.1784043046
C                -2.4760399971        0.3829064123       -0.6629034641
C                -3.5152775412        0.0419613128       -1.5212501745
C                -4.7024112207       -0.4201206031       -0.9748932441
C                -4.8098079218       -0.5249602566        0.3992544256
C                -3.7197426416       -0.1524312477        1.1840541669
C                -3.7765527046       -0.2311345985        2.6782520590
N                -2.5910444744        0.2912985386        0.6548708288
H                 3.6906618163        0.1051520214        2.6320917136
H                 4.3977858060       -1.5172937608        2.7548106461
H                 5.3893407255       -0.1649688568        2.1918712781
H                 3.1520089239       -1.3640372716        0.7467812427
H                 4.0290300891       -0.2622899757       -1.1438535489
H                 5.1713589267        0.5632395384       -0.0820184501
H                 3.3932746431        1.8241758115        0.9976284278
H                 3.3105208158        2.0366545320       -0.7485997190
H                 1.5268317429        0.1338522775        0.8590911215
H                 1.0885156263        1.7577281181        0.3630445319
H                 1.2938359605        1.0941465883       -2.0336049240
H                 1.8461477837       -0.5122143995       -1.5271625201
H                 0.2843411306       -2.0213593306       -2.0175382812
H                -1.4307083547       -1.6084026129       -1.9491533386
H                -0.3841482583       -0.8304460912       -3.1601356505
H                -0.8136675426        1.6740640196       -0.5207625309
H                -1.2695921286        1.2750611578       -2.2016238146
H                -3.3989947439        0.1396971370       -2.5902373312
H                -5.5299266192       -0.6940669146       -1.6143942122
H                -5.7175096642       -0.8821282546        0.8620262589
H                -2.8304675560        0.1017496780        3.0936704823
H                -4.5794858118        0.3970603118        3.0606736174
H                -3.9684302335       -1.2547748455        2.9955005509



