%chk=./calculation/no_transfer_pubchem_sampling_0_b3lyp/82404567.chk
%nprocshared=7
%mem=6GB
#p b3lyp/6-31g(d) opt SCF=XQC 

Gaussian input prepared by ASE

0 1
N                 2.5027569026        1.9051650900        0.5221450683
C                 2.4307363810        0.7527492036       -0.1862038885
N                 3.5545842586        0.3072192780       -0.7473402691
C                 3.5272914572       -0.8363271134       -1.4111209560
N                 2.4961235000       -1.6326359558       -1.6151088882
C                 1.3745672561       -1.1940424993       -1.0592848283
O                 0.1959540563       -1.8307362084       -1.1334839116
C                -0.6953902681       -1.0636649476       -0.4401476028
C                -0.1210011007        0.0515355911        0.0824095365
C                 1.2514738559       -0.0021832309       -0.3150263344
C                -0.8749921593        1.0549693909        0.8901338473
C                -2.2105101516        0.4485466351        1.3311291171
C                -2.9170773713       -0.2380536318        0.1618144463
C                -2.1221369716       -1.4595366169       -0.3091536062
H                 1.6579198111        2.3904721872        0.7639804210
H                 3.3575409246        2.4289081911        0.4447520338
H                 4.4659503694       -1.1522153110       -1.8451668722
H                -0.2938993547        1.3537670035        1.7665867000
H                -1.0566292127        1.9511437394        0.2863034267
H                -2.0282098940       -0.2867675229        2.1172206927
H                -2.8490300397        1.2316959257        1.7435467194
H                -3.0141740148        0.4705086317       -0.6631830719
H                -3.9194864303       -0.5465690186        0.4613521535
H                -2.4992851876       -1.8309773636       -1.2639579728
H                -2.2130766164       -2.2729714471        0.4178070393



