%chk=calculation/no_transfer_pubchem_sampling_0_b3lyp/82834053_rwf.chk
%rwf=calculation/no_transfer_pubchem_sampling_0_b3lyp/82834053_rwf.rwf
%nprocshared=14
%mem=3GB
#p b3lyp/6-31g(d) 6D 10F nosymm GFInput td=(50-50,nstate=2) SCF=XQC 

Gaussian input prepared by ASE

0 1
C                 5.7966798082        0.6304369929       -2.2928600308
C                 5.4696854114        0.2056621281       -0.8602784953
C                 3.9613432145        0.0617307215       -0.6342037256
O                 3.2013773541       -0.2698711085       -1.5346432720
N                 3.5659796362        0.3077859977        0.6609163557
C                 2.2833832923        0.2065854817        1.2472660800
C                 2.1825151964        0.5218759666        2.6146771487
C                 0.9430387906        0.4438622159        3.2377312920
C                -0.2000118086        0.0605867909        2.5364240540
C                -0.1008199120       -0.2638694857        1.1711666009
N                -1.1927894358       -0.6990798969        0.4285052251
C                -2.5569259991       -0.4814112846        0.8660006064
C                -3.5272745458       -1.0538780036       -0.1677435252
C                -5.0019456198       -0.6736421594        0.0953671121
C                -5.2596989914        0.4618577152       -0.9113270911
C                -4.3518019171        0.0513087127       -2.0708654397
O                -3.1891585818       -0.5059152340       -1.4570179955
C                 1.1522517437       -0.1822862240        0.5304063204
H                 5.3214332337       -0.0493021346       -3.0042792299
H                 5.4255711344        1.6400698242       -2.4991291734
H                 6.8784545815        0.6221102150       -2.4617656302
H                 5.9231403799       -0.7737921500       -0.6502792360
H                 5.9046601558        0.9082615184       -0.1371955419
H                 4.2977722235        0.5858138763        1.3005304015
H                 3.0644554087        0.8259836326        3.1739893533
H                 0.8604844743        0.6919964163        4.2929433773
H                -1.1546396086        0.0155466503        3.0486333529
H                -1.0914700354       -0.5729532525       -0.5722955137
H                -2.7274512915       -0.9974420024        1.8197460671
H                -2.7816646057        0.5890035047        1.0282046554
H                -3.3907063837       -2.1426121573       -0.2131461254
H                -5.1742013952       -0.3718600820        1.1336645295
H                -5.6571557119       -1.5260206634       -0.1146221542
H                -6.3116210352        0.5511967492       -1.1997641716
H                -4.9344902698        1.4245920441       -0.5010293320
H                -4.0308387615        0.8839782061       -2.7043147837
H                -4.8434595386       -0.6998797279       -2.7100864399
H                 1.2459034089       -0.4264297936       -0.5194286251



