%chk=./calculation/no_transfer_pubchem_sampling_0_b3lyp/82834053.chk
%nprocshared=7
%mem=6GB
#p b3lyp/6-31g(d) opt SCF=XQC 

Gaussian input prepared by ASE

0 1
C                 5.8154719668        0.2290529989       -2.2847968997
C                 5.3934154718        0.4568076200       -0.8400872370
C                 3.9000607543        0.2044768469       -0.6502519206
O                 3.1647550082       -0.1273671993       -1.5509175058
N                 3.5131513475        0.3998276886        0.6421470395
C                 2.2429818414        0.2719070247        1.2229052612
C                 2.1235095946        0.5734255669        2.5804357164
C                 0.8912893734        0.4654978594        3.1938156316
C                -0.2248323500        0.0625963301        2.4853094885
C                -0.1163931738       -0.2459406262        1.1267985429
N                -1.1750810467       -0.7159472400        0.3914544342
C                -2.5462134047       -0.5711971830        0.8100701709
C                -3.4594593989       -1.1104791963       -0.3006600374
C                -4.9441604865       -0.8766986227        0.0025371660
C                -5.2097854253        0.4589308241       -0.6898591735
C                -4.2962199609        0.3552632849       -1.9094439543
O                -3.1827646719       -0.4294028990       -1.5183907733
C                 1.1315986961       -0.1311471846        0.5052074876
H                 5.5968885427       -0.7934450575       -2.5806435119
H                 5.2631666513        0.8932577285       -2.9440450351
H                 6.8801708265        0.4135503974       -2.4060251582
H                 5.9459507932       -0.2130670392       -0.1757652159
H                 5.6124026576        1.4855186396       -0.5412424871
H                 4.2324527830        0.6853801711        1.2925128481
H                 2.9896064216        0.8912283891        3.1435640586
H                 0.7969726047        0.7021041268        4.2437820490
H                -1.1751813206       -0.0133287138        2.9888877541
H                -1.0604856081       -0.6629636898       -0.6113537588
H                -2.7158920037       -1.1531418352        1.7224360644
H                -2.7992486084        0.4814391294        1.0131305209
H                -3.2267928437       -2.1719171698       -0.4518072381
H                -5.1431211312       -0.8505973665        1.0713202764
H                -5.5486555152       -1.6627365304       -0.4505763168
H                -6.2522067846        0.5964366534       -0.9665142404
H                -4.9016304618        1.2877423270       -0.0520575776
H                -3.9293707748        1.3232168746       -2.2595185711
H                -4.8120608303       -0.1471460252       -2.7398374011
H                 1.2257144662       -0.3611369029       -0.5426234964



