%chk=./calculation/no_transfer_pubchem_sampling_0_b3lyp/82927786.chk
%nprocshared=7
%mem=6GB
#p b3lyp/6-31g(d) opt SCF=XQC 

Gaussian input prepared by ASE

0 1
C                 0.4968194729       -2.7060855583       -1.4873116655
C                 1.2222569201       -1.7095867316       -0.6320839250
C                 2.1845555718       -2.1428997783        0.2661153750
C                 2.8891520442       -1.2427872620        1.0568944765
C                 3.8935325498       -1.7049495673        2.0246724789
N                 3.8216825086       -2.9954158731        2.4748508636
N                 4.8158524365       -0.8805414436        2.3494905597
O                 5.7432262970       -1.3735857000        3.3019660194
C                 2.6471765893        0.1169363841        0.8976685266
C                 1.6986351583        0.5831986513        0.0032342051
C                 1.5249989685        2.0631915314       -0.1811487332
C                 0.9501310500       -0.3413707302       -0.7371435430
O                -0.0048644296        0.0801555504       -1.6399215836
C                -1.2014272844        0.6266943033       -1.0783239690
C                -1.8330999553        1.5261643118       -2.1432756026
C                -2.5621677883        2.7220481216       -1.5355989705
C                -3.8852927797        2.3701684562       -0.8594198715
C                -3.7913234626        1.2823331343        0.2114200279
C                -3.5788225084       -0.1153087167       -0.3762065109
C                -2.1182755319       -0.5117146167       -0.6104745852
H                 0.0561565041       -2.2090524523       -2.3466714852
H                -0.2968088355       -3.1912118559       -0.9181399695
H                 1.1828709019       -3.4764020955       -1.8328539073
H                 2.4005760442       -3.2001108912        0.3227704828
H                 2.9277963522       -3.4544125645        2.4814278042
H                 4.4429587538       -3.2108113148        3.2388455931
H                 6.3647433648       -0.6420321024        3.3962098287
H                 3.2294416868        0.8138805212        1.4794422131
H                 1.0855294716        2.2782006518       -1.1520978717
H                 2.4924367281        2.5560959381       -0.1144796395
H                 0.8848551654        2.4843873212        0.5953065283
H                -0.9348495949        1.2415335657       -0.2100968026
H                -1.0229088535        1.8896532911       -2.7791829187
H                -2.5068023851        0.9463205134       -2.7738223121
H                -2.7671250929        3.4477678835       -2.3262923261
H                -1.9035037478        3.2074559825       -0.8109793622
H                -4.6013882317        2.0475234798       -1.6192580454
H                -4.2844194568        3.2796248507       -0.4027696942
H                -4.7342313147        1.2813718813        0.7641412372
H                -2.9992188852        1.5189869717        0.9229768113
H                -4.1314273284       -0.1781147814       -1.3155320961
H                -4.0151653122       -0.8564256503        0.2974111859
H                -2.0876761993       -1.2992399723       -1.3656000449
H                -1.6945835618       -0.9216346380        0.3105232185



