%chk=calculation/no_transfer_pubchem_sampling_0_b3lyp/83054696_rwf.chk
%rwf=calculation/no_transfer_pubchem_sampling_0_b3lyp/83054696_rwf.rwf
%nprocshared=14
%mem=3GB
#p b3lyp/6-31g(d) 6D 10F nosymm GFInput td=(50-50,nstate=2) SCF=XQC 

Gaussian input prepared by ASE

0 1
C                -2.2144487587        4.2789513264       -0.9337427748
C                -2.2146885851        2.8772528884       -1.5554306729
C                -0.9109663310        2.0901198949       -1.3101563459
C                -0.7213321918        1.5553020247        0.1393653397
C                -1.2837716447        0.1319909411        0.3452024385
N                -2.7100254167        0.0435503696        0.0312700571
C                -3.5298602156       -0.9326541558        0.7469520286
C                -3.5148960129       -2.4083904554        0.2785171459
C                -4.6410101937       -3.1831844724        0.9815187892
C                -2.1662905073       -3.1112825989        0.4908038186
N                 0.6714541212        1.5962105041        0.6394712247
C                 1.0539244873        2.9232174751        1.1017754759
C                 1.6803657717        1.0137627911       -0.2562190321
C                 2.8779894583        0.4275338930        0.5035844411
C                 2.5498048018       -0.8173245924        1.3951686253
C                 3.6130327660       -1.8573670975        0.9675093677
C                 3.2432375857       -2.3884043623       -0.4386083552
C                 3.5628836050       -1.1734851932       -1.3706932196
C                 4.0498817386       -0.0881759121       -0.3795746107
C                 4.8224699037       -0.9512974125        0.6431705218
H                -1.3967933892        4.8905121706       -1.3360849192
H                -2.0946701841        4.2429448398        0.1553842373
H                -3.1551302055        4.8019640732       -1.1415833139
H                -3.0634397469        2.3056522579       -1.1638859776
H                -2.3688207054        2.9743614757       -2.6391210414
H                -0.0655434943        2.7438723917       -1.5650995968
H                -0.8550745994        1.2489375770       -2.0171078597
H                -1.2946430528        2.1995012157        0.8159357118
H                -1.1497478364       -0.1177800604        1.4026827742
H                -0.6698643430       -0.5869253001       -0.2237336468
H                -2.8587756980       -0.0404634075       -0.9709499511
H                -4.5708301165       -0.5817016917        0.6923681489
H                -3.2484119519       -0.8859239305        1.8081589104
H                -3.7327719710       -2.4070859448       -0.8021146128
H                -4.6879727908       -4.2204128788        0.6302089286
H                -5.6201206358       -2.7229872080        0.8023978877
H                -4.4797774059       -3.2094946301        2.0674050195
H                -2.2216546970       -4.1617452882        0.1801189446
H                -1.8783971763       -3.0952253782        1.5502550264
H                -1.3609733381       -2.6408965735       -0.0807757843
H                 0.3461965109        3.2699962271        1.8624151221
H                 2.0450748365        2.8901119015        1.5648201079
H                 1.0908345760        3.6832785058        0.2961664117
H                 1.2015940060        0.2181173045       -0.8341220041
H                 2.0470097413        1.7549508584       -0.9938379230
H                 3.2916678929        1.2183532536        1.1423034700
H                 1.5283555409       -1.1801046949        1.2336082578
H                 2.6353511772       -0.5751473464        2.4601775022
H                 3.7841240044       -2.6476413702        1.7051069070
H                 2.1938281450       -2.7001910361       -0.4940012250
H                 3.8540401487       -3.2596810559       -0.7024288755
H                 2.7041468665       -0.8573078114       -1.9707894805
H                 4.3650732713       -1.4206990633       -2.0757218869
H                 4.6181087148        0.7169374279       -0.8572134056
H                 5.1824698274       -0.3804407248        1.5075787097
H                 5.6677816966       -1.4939629413        0.2023761634



