%chk=./calculation/no_transfer_pubchem_sampling_0_b3lyp/83054696.chk
%nprocshared=7
%mem=6GB
#p b3lyp/6-31g(d) opt SCF=XQC 

Gaussian input prepared by ASE

0 1
C                -2.0294662780        4.3386766195       -1.0076691019
C                -2.2674009853        2.9019328326       -1.4573572110
C                -1.0216308735        2.0258962724       -1.3040567576
C                -0.7388888037        1.6069983522        0.1562667689
C                -1.2514901733        0.1891601176        0.4626601184
N                -2.7002095821        0.1489562371        0.4522563466
C                -3.3041716885       -1.0221461256        1.0541174774
C                -3.0669832304       -2.3731105380        0.3351989753
C                -4.3278304366       -3.2341621505        0.3902453063
C                -1.8950262021       -3.1450336435        0.9391481099
N                 0.6592891452        1.7021320816        0.5607027932
C                 1.0638372272        3.0531317455        0.8772755796
C                 1.6101957481        1.0328821882       -0.3142367381
C                 2.7506269617        0.4053816852        0.4915297310
C                 2.3200878029       -0.8063450105        1.3465729666
C                 3.3062722193       -1.9019401744        0.9290174080
C                 2.9381606254       -2.3662452148       -0.4852198620
C                 3.3909383401       -1.1864333558       -1.3680986322
C                 3.9082686146       -0.1677564639       -0.3470594317
C                 4.5771261363       -1.0924275849        0.6712917691
H                -1.2409726314        4.7993553564       -1.6000830363
H                -1.7364151092        4.3745876712        0.0384551748
H                -2.9353838576        4.9285527579       -1.1279346071
H                -3.0859962281        2.4744292655       -0.8765332639
H                -2.5676624849        2.9092733767       -2.5086570667
H                -0.1630801282        2.5793070329       -1.6915248472
H                -1.1299807755        1.1318757679       -1.9238571345
H                -1.2924280619        2.2739160900        0.8234095098
H                -0.9187989334       -0.0682039787        1.4714326503
H                -0.8032729895       -0.5291351896       -0.2436863579
H                -3.0375710084        0.2506627068       -0.5000179890
H                -4.3794589698       -0.8231025121        1.0887561613
H                -2.9444346686       -1.0858031427        2.0846508797
H                -2.8431059445       -2.1613610493       -0.7183333632
H                -4.1608922687       -4.1883415720       -0.1054162200
H                -5.1606777133       -2.7351305455       -0.1006080583
H                -4.6040770565       -3.4292667231        1.4243479038
H                -1.7268300899       -4.0701853337        0.3904978398
H                -2.1086991176       -3.3980402091        1.9757251089
H                -0.9784754187       -2.5623642671        0.9137768264
H                 0.4111738582        3.4509527210        1.6532056827
H                 2.0816042090        3.0426456090        1.2628601595
H                 1.0344454251        3.7326311267        0.0106227771
H                 1.0825209536        0.2528584500       -0.8599551368
H                 2.0418045256        1.7296439890       -1.0536566489
H                 3.1619286358        1.1811730289        1.1428202239
H                 1.2887586643       -1.0899221031        1.1484964579
H                 2.4058832091       -0.5868054116        2.4104643514
H                 3.3886783958       -2.7163807090        1.6478679680
H                 1.8706520223       -2.5661002958       -0.5752150108
H                 3.4719849005       -3.2811313183       -0.7450447859
H                 2.5909097641       -0.7909213023       -1.9895699278
H                 4.2039307952       -1.4860463932       -2.0314128621
H                 4.5404702628        0.6026448608       -0.7883182443
H                 4.9372283501       -0.5703295464        1.5559591188
H                 5.3845329168       -1.6854870781        0.2446711509



