%chk=calculation/no_transfer_pubchem_sampling_0_b3lyp/83837867_rwf.chk
%rwf=calculation/no_transfer_pubchem_sampling_0_b3lyp/83837867_rwf.rwf
%nprocshared=14
%mem=3GB
#p b3lyp/6-31g(d) 6D 10F nosymm GFInput td=(50-50,nstate=2) SCF=XQC 

Gaussian input prepared by ASE

0 1
C                -1.9775713952        2.7473254465        0.3985800307
C                -1.6512178864        1.2797667859        0.3092954146
N                -0.3308827480        0.9792068993        0.2467576146
C                 0.0417122587       -0.3050003150        0.1706780640
N                 1.3695204727       -0.5988710089        0.1375814111
C                 2.4362037262        0.4006905013        0.0597691458
C                 3.7050196404       -0.1722464165        0.6940687310
C                 2.6475220986        0.8712830213       -1.4024018499
N                 3.5600946224        1.9945532324       -1.6031953056
C                -0.9508902505       -1.3225792788        0.1505194455
C                -1.0747362600       -2.7375002611        0.0827121335
N                -2.3462125084       -3.1086650367        0.1009510964
N                -3.0767557575       -1.9581280158        0.1814404554
C                -4.5236275803       -1.9991543103        0.2231632241
C                -2.2775346445       -0.8571972588        0.2143591293
N                -2.6747836830        0.4263544602        0.2953275420
H                -3.0581317136        2.8941797673        0.4457389194
H                -1.5103309981        3.1874715638        1.2869760301
H                -1.5749724273        3.2798816506       -0.4706894267
H                 1.6213402001       -1.5629166544       -0.0307740333
H                 2.0891593719        1.2605471335        0.6416128600
H                 4.0482428769       -1.0673743840        0.1568263387
H                 3.5355345577       -0.4441643045        1.7407293626
H                 4.5171493936        0.5612944888        0.6638473326
H                 1.6699944971        1.1554774007       -1.8055184496
H                 3.0086590074        0.0249825380       -2.0033017056
H                 3.2436426543        2.8036913431       -1.0708661498
H                 4.4954302998        1.7704856645       -1.2698832268
H                -0.3055448423       -3.4975840669        0.0234513952
H                -4.9153394347       -2.4710940515       -0.6828220522
H                -4.8794394286       -0.9696608227        0.2882712323
H                -4.8612531193       -2.5650557112        1.0965012910



