%chk=./calculation/no_transfer_pubchem_sampling_2_b3lyp/101022526.chk
%nprocshared=7
%mem=6GB
#p b3lyp/6-31g(d) opt SCF=XQC 

Gaussian input prepared by ASE

0 1
C                 5.8397230182        0.6290266956        1.3818437594
O                 5.0717554011       -0.5276622407        1.6022644603
C                 3.7923678359       -0.5592267345        1.1336126040
C                 3.0802890732       -1.7343625298        1.3814121044
C                 1.7802452603       -1.8646041012        0.9513113640
C                 1.1411900171       -0.8308619111        0.2639867869
C                 1.8624409079        0.3352519389        0.0026902462
C                 3.1726546071        0.4688564657        0.4349963022
C                 1.1773419488        1.4319706065       -0.7519327225
C                 0.3695529186        0.8248919668       -1.8979520199
C                -0.6941067859       -0.1561645707       -1.3969763427
C                -0.2401418106       -0.9482905346       -0.1940472918
C                -1.1424265089       -1.7556092776        0.3691320132
C                -2.5240336550       -1.8216074267       -0.1932462571
C                -3.0583965769       -0.3963955847       -0.3979888390
C                -4.4196696592       -0.4293841668       -1.0990686408
C                -3.2448969134        0.2520619679        0.9657266000
O                -3.8675352806       -0.1783912426        1.9127769767
C                -2.5792430435        1.5602415754        0.9286326937
O                -2.6700213089        2.4036093676        1.9764734101
C                -1.9634162028        1.7383320088       -0.2465940894
C                -2.0629288280        0.5333991375       -1.1294498481
H                 5.3876929371        1.5083286177        1.8525586373
H                 6.8071796456        0.4332299676        1.8417685717
H                 5.9809875907        0.8212078432        0.3129975663
H                 3.5763106540       -2.5322249531        1.9108708596
H                 1.2548186626       -2.7888035637        1.1349556834
H                 3.6960450830        1.3877391525        0.2177145591
H                 1.9074766116        2.1430073036       -1.1434682380
H                 0.5158207448        1.9677143815       -0.0673078871
H                 1.0632524795        0.2893565600       -2.5510717699
H                -0.1018245150        1.6114802221       -2.4902012325
H                -0.8891938646       -0.8823136804       -2.1983179025
H                -0.9200076301       -2.3414115393        1.2457854436
H                -2.5156086322       -2.3412447701       -1.1578155890
H                -3.1948692084       -2.3570034424        0.4789469784
H                -4.8051495141        0.5797104822       -1.2320154106
H                -4.3311435262       -0.9036198223       -2.0742457464
H                -5.1299703617       -0.9932263424       -0.4984491598
H                -3.1906034319        1.9508967298        2.6597313570
H                -1.4721656691        2.6415965322       -0.5593706848
H                -2.4597904703        0.8304969116       -2.1067203055



