%chk=calculation/no_transfer_pubchem_sampling_2_b3lyp/108311916_rwf.chk
%rwf=calculation/no_transfer_pubchem_sampling_2_b3lyp/108311916_rwf.rwf
%nprocshared=14
%mem=3GB
#p b3lyp/6-31g(d) 6D 10F nosymm GFInput td=(50-50,nstate=2) SCF=XQC 

Gaussian input prepared by ASE

0 1
C                 5.0526653277        1.2545360170       -1.8004295271
C                 5.2303128645       -0.1316284983       -1.1756852305
C                 4.5261902810       -0.3400890689        0.1884695077
N                 5.0600825250        0.6293462370        1.1592150893
C                 3.0131605475       -0.2204810984        0.0990282994
C                 2.3323516635        0.9790111519        0.3343972587
C                 0.9475693264        1.0739665966        0.2263539402
C                 0.1494780172       -0.0343242432       -0.1444846178
N                -1.2398351114        0.0545565374       -0.2983635762
C                -1.9482860249        1.3209286607       -0.1361956781
C                -2.6748593762        1.5392314742        1.2134674808
C                -1.7321159954        1.4978612711        2.4225619738
C                -3.4568277170        2.8602499157        1.1633747595
C                -1.9904486008       -1.1367153090       -0.7057744662
C                -3.3712419685       -0.9163297720       -1.3547372797
C                -3.9283607370       -2.3488610892       -1.4511393201
C                -3.3931903183       -3.0861385342       -0.1863243176
C                -2.3170170582       -2.1509606154        0.4211217908
C                 0.8441129809       -1.2509301074       -0.3538036698
C                 2.2288373999       -1.3282033918       -0.2346765283
H                 5.6094773972        1.3263290548       -2.7420519399
H                 5.4132754493        2.0374285150       -1.1265703802
H                 3.9987356544        1.4586088335       -2.0163299502
H                 6.3032204550       -0.3359286875       -1.0354767112
H                 4.8618551113       -0.9026627133       -1.8645387168
H                 4.7455971912       -1.3841546510        0.4817660773
H                 6.0657952010        0.4925484559        1.2540583878
H                 4.6537670870        0.4501495070        2.0764956865
H                 2.9010415625        1.8579194699        0.6225952596
H                 0.4949624219        2.0313153577        0.4497291518
H                -1.2491141363        2.1437421377       -0.3072047354
H                -2.6887790757        1.4071650396       -0.9384617347
H                -3.4028540163        0.7228920478        1.3298803927
H                -2.3006799588        1.5681328640        3.3577049469
H                -1.1508475275        0.5710174967        2.4479363769
H                -1.0244592293        2.3361662776        2.4034131246
H                -4.1699160973        2.8780708829        0.3298276871
H                -4.0209628707        3.0202307197        2.0892227720
H                -2.7779944297        3.7143058014        1.0388341890
H                -1.3900239071       -1.6541276020       -1.4666019899
H                -3.3145498848       -0.4136616756       -2.3262796484
H                -4.0170678656       -0.3151614938       -0.7036669842
H                -5.0209326861       -2.3617172768       -1.5166108951
H                -3.5508938658       -2.8326251244       -2.3599220674
H                -4.1947443159       -3.2812352919        0.5336520607
H                -2.9728565066       -4.0611100470       -0.4550295809
H                -1.4320427841       -2.6873818911        0.7758087661
H                -2.7186106847       -1.5991755177        1.2792194334
H                 0.3095216172       -2.1598197618       -0.5965985119
H                 2.7075006684       -2.2922878608       -0.4011783550



