%chk=./calculation/no_transfer_pubchem_sampling_2_b3lyp/108311916.chk
%nprocshared=7
%mem=6GB
#p b3lyp/6-31g(d) opt SCF=XQC 

Gaussian input prepared by ASE

0 1
C                 4.9462708196        0.6315432251       -2.0936511676
C                 5.2062233222       -0.4206729297       -1.0249726498
C                 4.5539189466       -0.0664636691        0.3245383515
N                 5.0890022475        1.2047990959        0.7951660890
C                 3.0542269402        0.0123053646        0.1844095883
C                 2.4043964363        1.2159216729       -0.0504421321
C                 1.0349183174        1.2725709965       -0.2058234929
C                 0.2403286924        0.1222911012       -0.1228280102
N                -1.1347623772        0.1591718206       -0.2912783526
C                -1.8924965673        1.3304124385        0.0821152489
C                -2.7798638653        1.1382687149        1.3269569797
C                -1.9092823375        0.9061164975        2.5588344518
C                -3.6626410843        2.3686357033        1.5204104868
C                -1.8010006414       -1.0173300482       -0.8122389018
C                -3.0464001698       -0.7353581928       -1.6700638411
C                -3.7944173304       -2.0626804147       -1.6447513399
C                -3.7067940662       -2.4576428798       -0.1724662250
C                -2.2818886790       -2.0661077989        0.2353249256
C                 0.9077888672       -1.0873832178        0.1071900029
C                 2.2791111947       -1.1360934474        0.2542441178
H                 5.4861016598        0.3849472175       -3.0053353276
H                 5.2746623941        1.6045367518       -1.7398543239
H                 3.8847264834        0.6862272901       -2.3205015170
H                 6.2839332888       -0.5245990385       -0.8713694281
H                 4.8185047650       -1.3874207847       -1.3526258310
H                 4.7844298033       -0.8975486862        1.0230315332
H                 6.0940779947        1.1361139528        0.9141772910
H                 4.6801676787        1.4437618127        1.6920016428
H                 2.9899393808        2.1191456745       -0.1234676020
H                 0.5909132311        2.2319594706       -0.4242609114
H                -1.1952218136        2.1340455663        0.3123839609
H                -2.5079914356        1.6688475688       -0.7594195901
H                -3.4281825636        0.2712957138        1.1775316553
H                -2.5219872994        0.6614812538        3.4240514611
H                -1.2073988919        0.0928687974        2.3883739173
H                -1.3345738855        1.8017152223        2.7870576710
H                -4.3141449543        2.5181665927        0.6616650879
H                -4.2844807830        2.2541384750        2.4053473325
H                -3.0511694812        3.2600413675        1.6452995550
H                -1.0691884503       -1.5068432068       -1.4664296858
H                -2.7803949769       -0.4086258815       -2.6742770428
H                -3.6778710349        0.0226865777       -1.2110401905
H                -4.8216326396       -1.9711759303       -1.9954010694
H                -3.2805747234       -2.7996667362       -2.2640117634
H                -4.4403507750       -1.8879976913        0.4010324683
H                -3.9045210879       -3.5165937444       -0.0116641742
H                -1.6355703544       -2.9440612399        0.2081598189
H                -2.2431858212       -1.6638356793        1.2447914992
H                 0.3502845047       -2.0053124353        0.1950902213
H                 2.7540591215       -2.0906032832        0.4389872123



