%chk=./calculation/no_transfer_pubchem_sampling_2_b3lyp/110463139.chk
%nprocshared=7
%mem=6GB
#p b3lyp/6-31g(d) opt SCF=XQC 

Gaussian input prepared by ASE

0 1
O                -0.8363703688        1.8645457777        1.9286214249
C                -0.9600859548        0.7287037309        1.5291529587
C                -2.2557717880       -0.0675664081        1.7139975283
C                -2.6325235831       -0.8297478199        0.4777904166
C                -2.4017892231       -2.1980974616        0.3735445893
C                -2.7093624556       -2.8870029392       -0.7832293136
C                -3.2554987755       -2.2109270792       -1.8694231655
O                -3.5435917043       -2.9212961622       -2.9916861280
C                -3.4886598051       -0.8433518599       -1.7755746764
C                -3.1776034441       -0.1641028427       -0.6133841487
N                 0.0043210824        0.0065988469        0.9017580653
C                 1.3056133666        0.3856695067        0.5525596584
C                 2.0592105725       -0.5427078844       -0.1885231232
C                 3.3520583368       -0.2870501388       -0.5829016769
C                 3.9093378665        0.9364394345       -0.2251704209
N                 5.1525607746        1.4646452949       -0.4703050992
C                 5.1459246676        2.6330816413        0.0855981327
N                 3.9672773129        2.9420284403        0.7015066771
C                 3.1419772867        1.8634370228        0.5193890867
C                 1.8411386011        1.6100714934        0.9200101286
H                -2.1057510104       -0.7501292354        2.5541061380
H                -3.0343418095        0.6456708948        1.9878305560
H                -1.9871382535       -2.7385440724        1.2136167840
H                -2.5366615791       -3.9481517563       -0.8649271004
H                -3.9183036979       -2.3384487796       -3.6630066496
H                -3.9152504368       -0.3121939514       -2.6162284802
H                -3.3594880720        0.8984756788       -0.5502530278
H                -0.2633562681       -0.9178332996        0.5877553941
H                 1.5980408016       -1.4842526024       -0.4536607439
H                 3.9208533350       -1.0050829328       -1.1504994361
H                 5.9789331651        3.3095934093        0.0741990339
H                 3.7400770019        3.7901518807        1.1922212012
H                 1.2642240584        2.3215751728        1.4851154167



