%chk=calculation/no_transfer_pubchem_sampling_2_b3lyp/110463139_rwf.chk
%rwf=calculation/no_transfer_pubchem_sampling_2_b3lyp/110463139_rwf.rwf
%nprocshared=14
%mem=3GB
#p b3lyp/6-31g(d) 6D 10F nosymm GFInput td=(50-50,nstate=2) SCF=XQC 

Gaussian input prepared by ASE

0 1
O                -0.6142597456        1.6394719916        2.3355672878
C                -0.9069398099        0.7775220048        1.5157202907
C                -2.3242794246        0.1662128217        1.5192255959
C                -2.6960863144       -0.7863614815        0.4060800818
C                -2.4959871003       -2.1710603655        0.5346887932
C                -2.8194774228       -3.0539304103       -0.4915236994
C                -3.3588575361       -2.5617881943       -1.6851434111
O                -3.6622621679       -3.4690862084       -2.6601378460
C                -3.5663546653       -1.1864986052       -1.8364696849
C                -3.2359177121       -0.3157095517       -0.7990732163
N                -0.0524905747        0.2768483103        0.5703178116
C                 1.2971274000        0.6146841336        0.3259997045
C                 1.9370882212       -0.0748097670       -0.7358553118
C                 3.2595777417        0.1681215630       -1.0735703864
C                 3.9677802529        1.1242513555       -0.3349666404
N                 5.2821826185        1.5600835914       -0.4543595943
C                 5.4153689146        2.4589139213        0.4858534869
N                 4.2716002857        2.6545172325        1.2297061716
C                 3.3103542655        1.7996906524        0.7199158629
C                 1.9814393887        1.5732544412        1.0790259881
H                -2.4293747011       -0.3236857489        2.4950163609
H                -3.0066841165        1.0230740221        1.5425090997
H                -2.0848743221       -2.5663736821        1.4609937985
H                -2.6684916562       -4.1233501209       -0.3840771006
H                -4.0319862341       -3.0017980035       -3.4254364757
H                -3.9894710563       -0.7974064271       -2.7609450612
H                -3.4063887210        0.7505025706       -0.9295132115
H                -0.4426735373       -0.4279027822       -0.0423552041
H                 1.3691743863       -0.8142397011       -1.2964540435
H                 3.7395569787       -0.3655556807       -1.8878077553
H                 6.3202488281        3.0171602586        0.6915799433
H                 4.1577252680        3.2971129367        1.9995286245
H                 1.4836322685        2.0923359230        1.8859597408



