%chk=./calculation/no_transfer_pubchem_sampling_2_b3lyp/110641808.chk
%nprocshared=7
%mem=6GB
#p b3lyp/6-31g(d) opt SCF=XQC 

Gaussian input prepared by ASE

0 1
C                 2.9231728595       -1.6055284444        2.1755697840
O                 2.1493446120       -0.6420707217        1.4714196781
C                 2.8902251126        0.2198447424        0.6885256154
C                 3.4304568213        1.3829529646        1.2249592737
C                 4.1125819358        2.2688165471        0.4100524907
C                 4.2719480893        2.0248152848       -0.9497682710
C                 5.0273869862        2.9769542006       -1.8233588570
C                 3.7278335624        0.8584838037       -1.4764628436
C                 3.0534037061       -0.0292722394       -0.6664523194
S                 2.4040509071       -1.5540413500       -1.3741588996
O                 3.0716700185       -2.6555816085       -0.7394258979
O                 2.4886217433       -1.4369063269       -2.7987846514
N                 0.8105789061       -1.6178313531       -0.9484577985
C                 0.0114002632       -0.5000954006       -1.4298304220
C                -1.4047514833       -0.6385717832       -0.9829438943
C                -2.4603367542       -1.2274518246       -1.7151149907
C                -3.5830946403       -1.1875108749       -0.9354520194
C                -4.9481443345       -1.7072116508       -1.2238082494
N                -3.2515082459       -0.5826977831        0.2513956628
C                -4.1441647710       -0.3798424485        1.3398058083
C                -5.4042714395        0.4118192175        1.1312662960
C                -4.2907177988        0.9861056170        1.9468836384
C                -1.9170811711       -0.2643047955        0.2377925292
C                -1.2220169263        0.3612188247        1.3984870002
H                 3.6896213515       -1.1187057017        2.7859996497
H                 2.2230645619       -2.1353986567        2.8187304645
H                 3.3887671210       -2.3041895806        1.4754467750
H                 3.3013287967        1.5886750682        2.2770919185
H                 4.5257891529        3.1698208944        0.8400178346
H                 4.9891742155        3.9871860986       -1.4234827220
H                 6.0731204528        2.6746878195       -1.8810302698
H                 4.6232355443        2.9754889459       -2.8321479558
H                 3.8147882474        0.6155498177       -2.5242530942
H                 0.7167262295       -1.7773013774        0.0441925443
H                 0.4309916015        0.4565128383       -1.0797502605
H                 0.0809860573       -0.5318604475       -2.5185920291
H                -2.3867100034       -1.6359445691       -2.7028193914
H                -5.3606097374       -2.2218274390       -0.3576160801
H                -4.8935054455       -2.4061213792       -2.0539966110
H                -5.6353609897       -0.9068348539       -1.5003570586
H                -4.2047644550       -1.2288319062        2.0182054068
H                -5.5718394036        0.8389034134        0.1555227266
H                -6.3034987639        0.0804614875        1.6269434300
H                -4.4068446757        1.0584412174        3.0173331647
H                -3.7234756548        1.7927300527        1.5111703332
H                -1.6612374204        0.0267705439        2.3359741202
H                -0.1695186227        0.0892874468        1.3926446366
H                -1.2868171188        1.4504076697        1.3626358051



