%chk=calculation/no_transfer_pubchem_sampling_2_b3lyp/110641808_rwf.chk
%rwf=calculation/no_transfer_pubchem_sampling_2_b3lyp/110641808_rwf.rwf
%nprocshared=14
%mem=3GB
#p b3lyp/6-31g(d) 6D 10F nosymm GFInput td=(50-50,nstate=2) SCF=XQC 

Gaussian input prepared by ASE

0 1
C                 3.3289839400       -2.1593479193        1.8935188132
O                 2.5102696353       -1.1143785522        1.3402644239
C                 3.1965484340       -0.1258809877        0.6692616676
C                 3.8643793658        0.8811921125        1.3668528984
C                 4.4924555387        1.9153052174        0.6728744446
C                 4.4639641478        1.9803243977       -0.7264529019
C                 5.1650520770        3.0911340306       -1.4732747727
C                 3.7798155043        0.9727717539       -1.4173608420
C                 3.1630859833       -0.0732245490       -0.7316092152
S                 2.3393427135       -1.3778241593       -1.6709174806
O                 2.9552973739       -2.6509539662       -1.2865820233
O                 2.3088860953       -0.9371265452       -3.0680727878
N                 0.7552739073       -1.4281569468       -1.1344261930
C                -0.1225596110       -0.2680787966       -1.4285639201
C                -1.4968113072       -0.5229548763       -0.8893784090
C                -2.3956061912       -1.5341275464       -1.3454913219
C                -3.5494208930       -1.4511158608       -0.6057200307
C                -4.7714086251       -2.3130438756       -0.6624663514
N                -3.3965549937       -0.3926919979        0.2891524720
C                -4.3231709278       -0.0563884974        1.3343335999
C                -5.7519162474        0.2971033125        0.9940741624
C                -4.8140043966        1.3643737848        1.4855906590
C                -2.1266547819        0.1580426896        0.1375655978
C                -1.6250668120        1.2703788708        1.0060521266
H                 4.0783349727       -1.7453586697        2.5789095767
H                 2.6500738151       -2.8107063341        2.4473251769
H                 3.8147411531       -2.7226749858        1.0917969291
H                 3.8694865579        0.8556931217        2.4527382777
H                 5.0043707055        2.6943968669        1.2330061052
H                 5.2303013720        4.0014449983       -0.8681121577
H                 6.1898734133        2.8030199743       -1.7421248803
H                 4.6436917735        3.3384975274       -2.4036668354
H                 3.7192075562        0.9843024458       -2.5013987907
H                 0.7466616021       -1.6964590016       -0.1506924857
H                 0.2889217680        0.6635572480       -1.0139302974
H                -0.1367166072       -0.1608643407       -2.5165493749
H                -2.2011076928       -2.2517056844       -2.1319263532
H                -5.0327033094       -2.7340592993        0.3167687808
H                -4.5842133520       -3.1489250302       -1.3427165350
H                -5.6586205871       -1.7818953879       -1.0302334219
H                -4.1752995935       -0.6134827167        2.2598747859
H                -6.0242775099        0.3252271845       -0.0556787408
H                -6.5322783403       -0.0700107243        1.6543447142
H                -4.9312660006        1.7521792140        2.4933927607
H                -4.4705763071        2.0925230681        0.7582765168
H                -1.7883701549        1.0649498563        2.0709326383
H                -0.5490486393        1.3994752733        0.8612530363
H                -2.1013675245        2.2355443027        0.7891879588



