%chk=./calculation/no_transfer_pubchem_sampling_2_b3lyp/113131564.chk
%nprocshared=7
%mem=6GB
#p b3lyp/6-31g(d) opt SCF=XQC 

Gaussian input prepared by ASE

0 1
C                -0.3649691953        4.1224123864        1.7250480888
O                -0.4293947497        3.0166994834        0.8313695643
C                -1.4970762167        2.2192981997        0.9708996654
O                -2.3692098214        2.4113915763        1.7812900178
C                -1.4956334378        1.0867129508        0.0121287413
C                -2.5462737854        0.1745914866        0.0698860892
C                -2.5826211085       -0.9092726999       -0.7818136521
C                -1.5601839738       -1.1037111145       -1.7068649773
N                -1.5490369943       -2.2475048734       -2.5347487333
C                -1.5874439049       -3.5456588652       -1.8817087441
C                -0.2767575639       -3.8606570216       -1.1463182793
C                -0.1536299229       -2.9559376978        0.0699892327
O                -0.9845790162       -2.9513703923        0.9478842580
N                 0.9563349104       -2.1583566286        0.0527406314
C                 1.2763175258       -1.0898834718        0.8883705838
C                 0.4838838719       -0.6963904200        1.9646898559
C                 0.8468492663        0.4045638265        2.7097015567
C                 2.0069477503        1.1288044429        2.4267931782
C                 2.3265416100        2.3020573354        3.2709584156
C                 3.7009871734        2.9077083628        3.1191591901
O                 1.5175173894        2.7613684861        4.0488972299
C                 2.8009748930        0.7196841382        1.3557223377
C                 2.4355092779       -0.3690723381        0.5953272859
C                -1.4323327441       -2.2120741883       -3.8976683481
C                -1.5959665163       -0.8614070681       -4.5545021828
O                -1.2557132801       -3.2263608020       -4.5402055733
C                -0.5149527864       -0.1823311413       -1.7721210162
C                -0.4820939863        0.9053075697       -0.9237637361
H                -1.3248129669        4.6413027418        1.7523322947
H                 0.4157218227        4.7760919268        1.3439967271
H                -0.1180211393        3.7809999476        2.7319401779
H                -3.3268793264        0.3326935899        0.7978007328
H                -3.4021162606       -1.6084671642       -0.7280025729
H                -1.7563050416       -4.2852214569       -2.6672987306
H                -2.4078517733       -3.5755078299       -1.1618015602
H                -0.3270775793       -4.8929835689       -0.7966523208
H                 0.5668387639       -3.7585986154       -1.8291166795
H                 1.5990508024       -2.2871911039       -0.7171542676
H                -0.4114589762       -1.2461235973        2.1994202925
H                 0.2318397738        0.7244121971        3.5376191127
H                 4.4688499506        2.1457823013        3.2277953704
H                 3.8379572004        3.6758022327        3.8760370659
H                 3.7952314690        3.3623201429        2.1348936758
H                 3.6998440794        1.2575138592        1.0983538509
H                 3.0513380177       -0.6693722714       -0.2418116200
H                -0.6209488151       -0.4151811985       -4.7388172148
H                -2.0721899947       -1.0185762459       -5.5195032273
H                -2.1913173924       -0.1831503209       -3.9508512178
H                 0.2838739477       -0.3362379396       -2.4825993885
H                 0.3344417738        1.6083618518       -0.9677211808



