%chk=calculation/no_transfer_pubchem_sampling_2_b3lyp/113131564_rwf.chk
%rwf=calculation/no_transfer_pubchem_sampling_2_b3lyp/113131564_rwf.rwf
%nprocshared=14
%mem=3GB
#p b3lyp/6-31g(d) 6D 10F nosymm GFInput td=(50-50,nstate=2) SCF=XQC 

Gaussian input prepared by ASE

0 1
C                -5.5460340973        4.5905958244        0.6384113843
O                -4.7041128487        3.4446222022        0.4344350798
C                -4.6418269721        2.9928843379       -0.8375167502
O                -5.2485148076        3.5052178693       -1.7577766522
C                -3.7502695627        1.8052398486       -0.9762799421
C                -3.6097210834        1.2395921420       -2.2497369692
C                -2.7951026717        0.1275683627       -2.4367857826
C                -2.0956815808       -0.4196807388       -1.3536993929
N                -1.2644018741       -1.5772589022       -1.5339078493
C                -1.7389337570       -2.8485581327       -0.9443595557
C                -0.7181090369       -3.6080858568       -0.0703284243
C                 0.0446423263       -2.6808517173        0.8699885684
O                -0.4749944499       -2.2053522349        1.8739410608
N                 1.3353329400       -2.4256765515        0.4631297730
C                 2.3041945460       -1.6003818228        1.0575865577
C                 2.1341054743       -0.9797939847        2.3089221924
C                 3.1551663342       -0.1904613370        2.8213317926
C                 4.3585473021        0.0079274614        2.1258712506
C                 5.4087401427        0.8719318228        2.7437968103
C                 6.7187423520        1.0817331650        1.9980699036
O                 5.2247796492        1.4037508667        3.8296641624
C                 4.5156081509       -0.6183619213        0.8794642222
C                 3.5052642860       -1.4110693617        0.3515603550
C                -0.1233684648       -1.5754365166       -2.3026245064
C                 0.3464480578       -0.2527841902       -2.8856402510
O                 0.5196508016       -2.6122901968       -2.4828317976
C                -2.2400001665        0.1372130414       -0.0757987044
C                -3.0656290319        1.2430523625        0.1100799362
H                -5.1936675652        5.4359152517        0.0415482145
H                -5.4780244791        4.8162312200        1.7028601044
H                -6.5776117545        4.3628880336        0.3573673375
H                -4.1569054860        1.6773417968       -3.0779616382
H                -2.7060893832       -0.3283993445       -3.4183126189
H                -2.0708524592       -3.5151188186       -1.7492745197
H                -2.6096748588       -2.5911187332       -0.3401185186
H                -1.2789170487       -4.3096438535        0.5561718298
H                -0.0401962975       -4.1766380763       -0.7065179258
H                 1.5658146027       -2.7737895814       -0.4623723588
H                 1.2107770648       -1.1224869652        2.8521478085
H                 3.0385462779        0.2946944357        3.7850794305
H                 7.2328573126        0.1285600975        1.8253356757
H                 7.3588740864        1.7332011052        2.5953184967
H                 6.5472544405        1.5429070559        1.0179288424
H                 5.4311731867       -0.4914266543        0.3100740508
H                 3.6406178100       -1.8907369734       -0.6153206994
H                 0.2396028171        0.5767714997       -2.1815594863
H                 1.3945426399       -0.3734726905       -3.1640851248
H                -0.2208171291        0.0019748481       -3.7870332712
H                -1.7065250545       -0.3014623213        0.7627762892
H                -3.1752976801        1.6778038264        1.0969816100



