%chk=calculation/no_transfer_pubchem_sampling_2_b3lyp/116087117_rwf.chk
%rwf=calculation/no_transfer_pubchem_sampling_2_b3lyp/116087117_rwf.rwf
%nprocshared=14
%mem=3GB
#p b3lyp/6-31g(d) 6D 10F nosymm GFInput td=(50-50,nstate=2) SCF=XQC 

Gaussian input prepared by ASE

0 1
C                 4.6732457310       -0.3211391939       -2.4650553941
C                 3.6297423115       -0.5852239555       -1.4222208573
N                 2.7465891905        0.2862417635       -1.0298556541
C                 1.9032591742       -0.2298869982       -0.0631730130
C                 0.8678082939        0.6873915794        0.5365077484
C                 1.3376070532        1.3944121808        1.8650855689
N                 0.3202110196        1.1222325446        2.8794078313
C                -0.5736936818        0.3913996153        2.3201277180
N                -1.7469672601       -0.0091628090        2.9338717569
N                -0.3505623491       -0.0123052641        0.9964366159
C                -1.4113499357       -0.3165940070        0.0779902155
C                -1.4548911020       -1.6014049123       -0.4752282144
C                -2.4477257359       -1.9560386537       -1.3882909536
C                -3.4124528413       -1.0168764725       -1.7479070528
C                -3.3722394240        0.2646209492       -1.1971839900
C                -2.3808922196        0.6458148226       -0.2846635125
C                -2.3786598197        2.0401662993        0.2946235683
C                 2.1499981232       -1.5261884326        0.2908729082
S                 3.4914106085       -2.1488887642       -0.6164349120
H                 4.5678150174       -0.9967629769       -3.3218145180
H                 4.5610064171        0.7078612255       -2.8144365629
H                 5.6855910874       -0.4482788616       -2.0643878484
H                 0.6140648654        1.4301045239       -0.2299893259
H                 1.4634294959        2.4740966318        1.7155954375
H                 2.3087649537        0.9987391003        2.1871447672
H                -2.0961171955       -0.9156412535        2.6469073477
H                -1.7082228911        0.1067566126        3.9390953759
H                -0.6923887942       -2.3158677639       -0.1825502740
H                -2.4657353564       -2.9568567015       -1.8107880576
H                -4.1945684765       -1.2766978060       -2.4563489856
H                -4.1263904576        0.9942575749       -1.4830727159
H                -2.6260701898        2.0230945176        1.3620604079
H                -1.4003711887        2.5241858133        0.1996750283
H                -3.1134496359        2.6698977513       -0.2160877055
H                 1.6322042126       -2.1274586801        1.0240872519



