%chk=./calculation/no_transfer_pubchem_sampling_2_b3lyp/116221564.chk
%nprocshared=7
%mem=6GB
#p b3lyp/6-31g(d) opt SCF=XQC 

Gaussian input prepared by ASE

0 1
C                 1.6092952891       -1.8809597570       -0.2773778378
C                 1.4550347038       -0.5493369114        0.4653723842
C                 2.7408424569       -0.2367004713        1.2312577941
C                 1.0936007310        0.5884336286       -0.5050705097
C                 2.1255342576        0.8843993865       -1.6038497777
C                 3.2689269541        1.6198892157       -1.1285167750
N                 4.1743617322        2.2248340393       -0.7794092909
C                 0.3167686504       -0.6741769500        1.5126433670
N                -0.9550964527       -1.0804299329        0.9740170622
C                -1.9246752064       -0.2830035734        0.4364118374
C                -2.8768534797       -0.8574849178       -0.4254170200
F                -2.7094472989       -2.1745726938       -0.7315519161
C                -3.9381334335       -0.1786547971       -0.9749763310
C                -4.1030816336        1.1652073033       -0.6809155595
C                -3.1978257525        1.7866218759        0.1595969346
C                -2.1462850557        1.0758404685        0.7019910925
F                -1.3015164861        1.7546904886        1.5213984817
H                 2.5280883618       -1.8981778445       -0.8585737132
H                 0.7751101537       -2.0574775033       -0.9541915630
H                 1.6591386468       -2.7031903295        0.4338342333
H                 3.5946682176       -0.1877451698        0.5610414250
H                 2.9369494508       -1.0107108993        1.9702903133
H                 2.6598459246        0.7174593377        1.7465165321
H                 0.1553087087        0.3333226512       -1.0049426351
H                 0.9258058590        1.5023359364        0.0696765204
H                 1.6529445866        1.4989409369       -2.3769453425
H                 2.4724381003       -0.0384779353       -2.0743636523
H                 0.6071007185       -1.4312175456        2.2480948352
H                 0.2064789397        0.2723583502        2.0383210718
H                -0.9692109890       -2.0260785102        0.6194588341
H                -4.6168886206       -0.7043813601       -1.6267754661
H                -4.9260449807        1.7183434410       -1.1011442689
H                -3.2931840536        2.8301000426        0.4140989401



