%chk=calculation/no_transfer_pubchem_sampling_2_b3lyp/117769685_rwf.chk
%rwf=calculation/no_transfer_pubchem_sampling_2_b3lyp/117769685_rwf.rwf
%nprocshared=14
%mem=3GB
#p b3lyp/6-31g(d) 6D 10F nosymm GFInput td=(50-50,nstate=2) SCF=XQC 

Gaussian input prepared by ASE

0 1
C                -3.3543582345       -1.6853347003       -0.9096156004
N                -2.1942689653       -0.8691676880       -0.5944932596
C                -2.1138925438        0.1665374441        0.3455461572
C                -3.2641310206        0.7058174526        1.0718517430
C                -3.1636067229        1.1655465201        2.4327059956
C                -4.3291671128        1.6814193703        2.9165109439
S                -5.5948339790        1.6232755270        1.7306312418
C                -4.5340939680        0.8965708521        0.5711223343
C                -0.7997703394        0.5750843250        0.4454966965
C                -0.0331917089       -0.2147828668       -0.4640384589
C                 1.3277279690       -0.2895529544       -0.8454430541
N                 2.2191082897        0.6430686495       -0.2887948671
C                 3.5842347686        0.5514186632       -0.0998062061
C                 4.3209429369        1.7230681738        0.1765428381
C                 5.6773662647        1.5668329127        0.3998292462
N                 6.2979944026        0.3748608151        0.3553209852
C                 5.4952782802       -0.6588660241        0.0866478702
N                 4.1797793631       -0.6479447735       -0.1347129169
N                 1.7696570683       -1.1654819082       -1.7354032182
C                 0.8879443218       -2.0269163753       -2.2842600539
C                -0.4752011282       -2.0519557367       -2.0234229416
C                -0.9328864740       -1.1090421503       -1.0928237819
H                -4.0706119411       -1.6351188911       -0.0887752465
H                -3.8467757253       -1.3551341549       -1.8328347850
H                -3.0402456992       -2.7253660238       -1.0345904110
H                -2.2547513891        1.0815563889        3.0177630722
H                -4.5280131356        2.0726111152        3.9050692816
H                -4.8923281609        0.6994319303       -0.4295159493
H                -0.4512175269        1.3703761940        1.0900531291
H                 1.8059751465        1.5294530295       -0.0348670855
H                 3.8508293332        2.7023207532        0.2027312875
H                 6.3037452259        2.4307789494        0.6176943593
H                 5.9694735730       -1.6386073346        0.0505740746
H                 1.3128165165       -2.7294956140       -2.9982307888
H                -1.1295306840       -2.7572628704       -2.5244636313



