%chk=./calculation/no_transfer_pubchem_sampling_2_b3lyp/117769685.chk
%nprocshared=7
%mem=6GB
#p b3lyp/6-31g(d) opt SCF=XQC 

Gaussian input prepared by ASE

0 1
C                -3.3437970311       -1.6546137789       -0.8931089813
N                -2.1807900545       -0.8970970826       -0.5264544816
C                -2.1268888282        0.1677321990        0.3471052303
C                -3.2888882535        0.7788437914        0.9602586505
C                -3.2558070058        1.3194335528        2.2794815343
C                -4.4326583840        1.8712125320        2.6538910686
S                -5.6212563281        1.7670544694        1.4152209441
C                -4.5143467335        0.9587080347        0.3807912525
C                -0.8179183816        0.5496170220        0.5208037884
C                -0.0223295527       -0.3014679327       -0.2839032657
C                 1.3546191904       -0.4400314852       -0.5626023182
N                 2.2375477969        0.4293581947        0.0509307586
C                 3.5955502436        0.4971529305       -0.0586995408
C                 4.2949822977        1.4794117753        0.6693209613
C                 5.6630387878        1.4976220338        0.5183089560
N                 6.3073659645        0.6403608787       -0.2694485794
C                 5.5541325134       -0.2371844270       -0.9047025047
N                 4.2445252385       -0.3564564116       -0.8443366548
N                 1.8003706299       -1.3657169483       -1.3801597324
C                 0.9419031564       -2.1971274068       -1.9665694605
C                -0.4248208763       -2.1764186745       -1.7888461890
C                -0.9116464924       -1.1980656087       -0.9216795700
H                -4.0980561471       -1.5759959621       -0.1110636453
H                -3.7686421620       -1.2995841239       -1.8366724675
H                -3.0670408952       -2.7026539236       -1.0105589626
H                -2.3882120222        1.2718139132        2.9118930475
H                -4.6851328271        2.3347042684        3.5865505967
H                -4.8290356389        0.7028946360       -0.6106547270
H                -0.4881360366        1.3651543954        1.1346612402
H                 1.8092402099        1.1096698111        0.6629619469
H                 3.7813095956        2.1791617692        1.3105595624
H                 6.2817427608        2.2176906870        1.0392051684
H                 6.0664282730       -0.9402137866       -1.5491558711
H                 1.4021593862       -2.9220446480       -2.6233545998
H                -1.0695153937       -2.8729256943       -2.2999741550



