%chk=./calculation/no_transfer_pubchem_sampling_2_b3lyp/120036654.chk
%nprocshared=7
%mem=6GB
#p b3lyp/6-31g(d) opt SCF=XQC 

Gaussian input prepared by ASE

0 1
C                 6.9236939041        1.9680016783        0.8617533652
C                 6.4706334591        0.7183196259        1.6080357604
C                 7.0038702478       -0.5756591292        0.9712945835
N                 6.5994671777       -0.8791457000       -0.3865139328
C                 5.2080699238       -1.2024714361       -0.6094224834
C                 4.3000495233       -0.0123497881       -0.9834171974
N                 2.9161876650       -0.4080043136       -1.0695603529
C                 2.0323961027       -0.1361655525       -0.0765284120
O                 2.3241136659        0.5600818631        0.8783935666
C                 0.6682662287       -0.7051492409       -0.2610092428
C                 0.4082078156       -1.8782713812       -0.9638619390
C                -0.8820840489       -2.3550234660       -1.0777069602
C                -1.9478429769       -1.6667880181       -0.4977288500
N                -3.2457054621       -2.1192090853       -0.6626417584
S                -4.4953817399       -1.8459945209        0.4446309378
O                -5.4944753060       -2.8042981206        0.0682554689
O                -3.9862010529       -1.8826658506        1.7818232587
C                -5.0425393529       -0.1865671262        0.0679677562
C                -5.0334670973        0.7204986552        1.1094415098
C                -5.4505897538        2.0301214477        0.9100495100
C                -5.4187254587        3.0241206121        2.0280846845
C                -5.8766643017        2.3876338095       -0.3647744788
C                -5.8902581312        1.4691929198       -1.3985383905
C                -5.4739785440        0.1552063694       -1.2057875025
C                -5.4848013218       -0.8381058139       -2.3206276321
C                -1.6909632199       -0.4991950660        0.2180507877
C                -0.3975454116       -0.0390580065        0.3411918306
H                 6.5383940986        1.9808576086       -0.1562398940
H                 6.5639876998        2.8612339217        1.3668178892
H                 8.0106977210        2.0113273592        0.8177813343
H                 5.3813325384        0.6870333556        1.6605942237
H                 6.8442595641        0.7596248152        2.6333789043
H                 8.0981483259       -0.5384387129        0.9645124793
H                 6.7028652518       -1.4247108887        1.5919870392
H                 6.9060520313       -0.1542852949       -1.0252107966
H                 4.8141724559       -1.6784212663        0.2917554214
H                 5.1646110446       -1.9362192180       -1.4263814858
H                 4.6186301629        0.4095725826       -1.9431020690
H                 4.3477709282        0.7619321115       -0.2162266368
H                 2.6452853483       -1.0077892966       -1.8306384786
H                 1.2118241292       -2.4553799813       -1.3993479993
H                -1.0739744662       -3.2728831002       -1.6152121935
H                -3.3493655675       -3.0067304712       -1.1301372271
H                -4.6956394059        0.3807717085        2.0768623963
H                -4.4465570662        3.5167838926        2.0581068200
H                -6.1796228577        3.7882971442        1.8901369641
H                -5.5750362228        2.5326450588        2.9846903497
H                -6.2077520917        3.3995193856       -0.5486271038
H                -6.2341280285        1.7729671233       -2.3764826961
H                -5.8228116613       -1.8037800336       -1.9536665066
H                -4.4783161348       -0.9603820366       -2.7205859677
H                -6.1374920535       -0.5040562653       -3.1235536446
H                -2.5061568732        0.0268161334        0.6852558585
H                -0.1849124044        0.8546409993        0.9077251324



