%chk=calculation/no_transfer_pubchem_sampling_2_b3lyp/124566511_rwf.chk
%rwf=calculation/no_transfer_pubchem_sampling_2_b3lyp/124566511_rwf.rwf
%nprocshared=14
%mem=3GB
#p b3lyp/6-31g(d) 6D 10F nosymm GFInput td=(50-50,nstate=2) SCF=XQC 

Gaussian input prepared by ASE

0 1
C                 2.3138986771       -1.9150555442       -3.0707117485
C                 2.0638323947       -0.8558060409       -1.9989189999
O                 3.3393907382       -0.5425890814       -1.4481870583
C                 3.4624781093        0.5072137513       -0.5878762036
C                 4.7266587642        0.7062495582       -0.0202229319
C                 4.9065309373        1.7769477123        0.8452593043
C                 3.8217734551        2.6164981932        1.1192592867
N                 2.6116840656        2.4360965232        0.5845715664
C                 2.4402297694        1.4036091472       -0.2511099911
C                 1.1229638705       -1.4332900490       -0.9174696852
O                 1.5284301527       -2.1697636390       -0.0391047669
N                -0.2045550569       -1.1090949733       -1.1158716437
C                -1.2812172801       -1.5961160265       -0.3456930520
C                -1.4743682142       -2.9660330917       -0.1514490128
F                -0.5913181796       -3.8279910354       -0.6851361939
C                -2.5749197083       -3.4679149171        0.5303331238
C                -3.5350627095       -2.5726086267        0.9972621072
C                -3.3804030447       -1.1999405332        0.8014093503
C                -2.2534986818       -0.6909990276        0.1406148359
N                -2.0236472432        0.6939054333       -0.1164176865
C                -1.0905293092        1.3471845285        0.8403023532
C                -1.9849619506        1.8689132364        1.9829609271
C                -3.3209997013        2.2260600288        1.2815139762
C                -3.1970939476        1.5882282601       -0.1340916903
H                 2.7543740082       -2.8027705820       -2.6085304107
H                 1.3732892654       -2.1975255266       -3.5532565668
H                 3.0018223502       -1.5264704206       -3.8274116012
H                 1.6266618159        0.0424011989       -2.4598336207
H                 5.5304737561        0.0194130873       -0.2664596848
H                 5.8731482589        1.9601408982        1.3056261236
H                 3.9308668827        3.4631540040        1.7941477172
H                 1.4400554705        1.2912493955       -0.6569425194
H                -0.4230704641       -0.2483149544       -1.6083521047
H                -2.6710446071       -4.5404570196        0.6593422272
H                -4.4075509682       -2.9459458185        1.5253901946
H                -4.1333903765       -0.5185470019        1.1825820547
H                -0.3209090369        0.6471263500        1.1699586953
H                -0.5949258550        2.1834251185        0.3317637365
H                -2.1397997517        1.0757650070        2.7221503504
H                -1.5330599344        2.7196519396        2.5017135361
H                -4.1788924037        1.8285160084        1.8337525065
H                -3.4649346691        3.3085876905        1.2044366411
H                -3.0015762962        2.3709947603       -0.8772474698
H                -4.0868293526        1.0459020794       -0.4608069714



