%chk=calculation/no_transfer_pubchem_sampling_2_b3lyp/124840314_rwf.chk
%rwf=calculation/no_transfer_pubchem_sampling_2_b3lyp/124840314_rwf.rwf
%nprocshared=14
%mem=3GB
#p b3lyp/6-31g(d) 6D 10F nosymm GFInput td=(50-50,nstate=2) SCF=XQC 

Gaussian input prepared by ASE

0 1
C                 1.4610590926       -3.7367223663        1.0027060494
C                 1.5580068815       -2.2966936066        0.5714702844
C                 0.4437924087       -1.4715091327        0.5328156144
C                 0.6324139709       -0.1326461033        0.1072118145
N                -0.3943705751        0.7775265967        0.0136871821
C                -0.0741233063        2.1561494555       -0.3522212723
C                -1.7848492993        0.3432567374        0.0732117653
C                -2.8846571624        1.1190984880       -0.7183920502
C                -3.5069541950        0.4314284927       -1.9489657414
C                -4.8043962959       -0.1815179513       -1.3663654036
O                -4.5898969854       -0.3106605399        0.0409691178
C                -3.8505005004        0.8294645165        0.4617593131
C                -2.6520671550        0.4730850883        1.3893808749
C                -2.2632320258        1.6714563387        2.2605819151
C                -2.7984388628       -0.7885075887        2.2375437983
N                 1.8662679873        0.2988442006       -0.2158272830
C                 2.8763294381       -0.5759186515       -0.1308563889
C                 4.2330665291       -0.0711396561       -0.4885394914
C                 4.4339457643        1.2438524821       -0.9248790535
C                 5.7257929095        1.6580477870       -1.2433271151
N                 6.8079230764        0.8724647522       -1.1594950106
C                 6.6046949027       -0.3846854634       -0.7417932905
C                 5.3569788832       -0.9016349411       -0.3990585701
N                 2.7878932919       -1.8586536022        0.2357091439
H                 0.4389330454       -4.0154709921        1.2747004093
H                 2.1183462992       -3.9181262627        1.8603572477
H                 1.8030673329       -4.3938756541        0.1950923492
H                -0.5190625005       -1.8491550600        0.8488811137
H                -0.0444022342        2.2977240612       -1.4412727096
H                -0.8177944479        2.8324112766        0.0706462875
H                 0.9050224687        2.4149448863        0.0473617933
H                -1.8187002501       -0.6974754688       -0.2569717565
H                -2.6612402838        2.1748681590       -0.8739247075
H                -3.7234835184        1.1332214330       -2.7608956465
H                -2.8440118682       -0.3422224282       -2.3510305738
H                -5.0423650972       -1.1762069990       -1.7533859802
H                -5.6639601005        0.4795063015       -1.5604181621
H                -4.5233065379        1.6298639741        0.8033669686
H                -1.2530299633        1.5483264777        2.6666727672
H                -2.9581714628        1.7647059200        3.1036835669
H                -2.2900351147        2.6201695300        1.7125374078
H                -3.0989645141       -1.6443051374        1.6258477238
H                -1.8564097993       -1.0289926649        2.7453739291
H                -3.5645710070       -0.6506662246        3.0104604707
H                 3.5920965374        1.9205297021       -1.0133028947
H                 5.9024531416        2.6770456693       -1.5851214741
H                 7.4911498665       -1.0141513094       -0.6778354304
H                 5.2437622350       -1.9270535234       -0.0671209019



