%chk=./calculation/no_transfer_pubchem_sampling_2_b3lyp/124840314.chk
%nprocshared=7
%mem=6GB
#p b3lyp/6-31g(d) opt SCF=XQC 

Gaussian input prepared by ASE

0 1
C                 1.5321254897       -3.6557347957        1.1122501133
C                 1.5978052025       -2.2522186989        0.5960740788
C                 0.4502381160       -1.5146482322        0.3729469289
C                 0.6040693231       -0.2032113312       -0.1140636702
N                -0.4338893698        0.6285442199       -0.3789835173
C                -0.1500361995        1.9693037171       -0.8364698034
C                -1.7952150648        0.1877620332       -0.2076226977
C                -2.9250656342        1.0582796923       -0.7974330710
C                -3.9167619574        0.3629014348       -1.7318106708
C                -5.2118837935        0.3730577731       -0.9039603471
O                -4.8238743854        0.3524439071        0.4539708469
C                -3.6271325672        1.0817779175        0.5750164261
C                -2.4404386476        0.3116242716        1.2161391234
C                -1.6379528004        1.1580097878        2.1921687464
C                -2.8427996910       -1.0050572399        1.8633177440
N                 1.8359613662        0.2755396662       -0.3374406484
C                 2.8717702714       -0.5088011126       -0.0858522193
C                 4.2088174038        0.0476589810       -0.3382943421
C                 4.3735093602        1.2767348885       -0.9730174408
C                 5.6597573133        1.7439009226       -1.1808453439
N                 6.7460361137        1.0865414429       -0.8093910237
C                 6.5878243335       -0.0817113149       -0.2085116611
C                 5.3516165012       -0.6474119961        0.0515205139
N                 2.8114870577       -1.7524227311        0.3712665685
H                 0.9503449491       -4.2798075877        0.4361516496
H                 1.0523036645       -3.6755836573        2.0894649154
H                 2.5370216091       -4.0577544572        1.1982234795
H                -0.5122639547       -1.9467848944        0.5791163820
H                -0.4053831316        2.0846501041       -1.8934096861
H                -0.6961159700        2.7076466834       -0.2489472076
H                 0.9177560201        2.1334788408       -0.7141682583
H                -1.8727634367       -0.8377254163       -0.5825658726
H                -2.6186323273        2.0284204922       -1.1737979808
H                -4.0431675927        0.8871339739       -2.6766424303
H                -3.6078053615       -0.6612521648       -1.9414800298
H                -5.8490936396       -0.4946852057       -1.0784832101
H                -5.7882670701        1.2865318351       -1.1141538134
H                -3.8232832527        2.0682756727        1.0123005893
H                -0.6764675551        0.6903359530        2.3942076193
H                -2.1816793977        1.2527577401        3.1294196294
H                -1.4585747912        2.1556183081        1.8000620787
H                -3.3404646807       -1.6531237210        1.1467442415
H                -1.9720261338       -1.5148072120        2.2692555537
H                -3.5408542372       -0.8104227331        2.6739689804
H                 3.5104081636        1.8372841785       -1.2934366870
H                 5.8363601092        2.6935022163       -1.6703088025
H                 7.5032906808       -0.5845537149        0.0764907606
H                 5.2533905945       -1.6019974375        0.5420414660



