%chk=calculation/no_transfer_pubchem_sampling_2_b3lyp/127471528_rwf.chk
%rwf=calculation/no_transfer_pubchem_sampling_2_b3lyp/127471528_rwf.rwf
%nprocshared=14
%mem=3GB
#p b3lyp/6-31g(d) 6D 10F nosymm GFInput td=(50-50,nstate=2) SCF=XQC 

Gaussian input prepared by ASE

0 1
C                -6.8305543471        0.6330480611       -0.2235647283
C                -6.5192062450       -0.6397297186        0.5556474311
S                -5.2222765744       -1.6757968822       -0.2024199342
O                -5.0769439051       -2.8698032218        0.6458441656
O                -5.5106938036       -1.7881054577       -1.6421929224
C                -3.7053460129       -0.7053028093       -0.0314802230
C                -3.2822005093        0.0933387491       -1.0977997856
C                -2.1101791385        0.8340080653       -0.9673418351
C                -1.3835317332        0.7548952990        0.2235321234
S                 0.1138885980        1.7416917053        0.4051078774
O                -0.1571149725        3.0888209628       -0.1067893086
O                 0.5936976810        1.5213590392        1.7747862480
N                 1.1500689060        1.0476379585       -0.7219276053
C                 2.0929677589       -0.0217069499       -0.3247629938
C                 2.3717873638       -0.9207313911       -1.5392890794
C                 3.3478912314       -2.0467067019       -1.1688686294
C                 4.6752261915       -1.4681593551       -0.6628632469
C                 4.4753385668       -0.5518153003        0.5553032072
O                 5.6674527076        0.1952545588        0.8211904889
C                 5.5176947316        1.5442888191        0.3559055670
C                 4.1591266549        1.6261839105       -0.3599657652
C                 3.3717775029        0.5120087388        0.3558628749
C                -1.8027602207       -0.0449918104        1.2864317915
C                -2.9761021505       -0.7895840442        1.1545031233
H                -5.9717770825        1.3113414877       -0.2497938201
H                -7.1206146495        0.3961337144       -1.2506247461
H                -7.6600466733        1.1611769620        0.2582433008
H                -6.1922266805       -0.4452605037        1.5817337804
H                -7.3788645930       -1.3177818206        0.5966740292
H                -3.8582531899        0.1131607050       -2.0167284307
H                -1.7617570867        1.4646736071       -1.7783653905
H                 1.5589733407        1.7947826450       -1.2794539636
H                 1.5583552504       -0.6308319530        0.4141406113
H                 1.4199352992       -1.3228629074       -1.9031704379
H                 2.7953167673       -0.3230315371       -2.3592385356
H                 3.5210625204       -2.6932719037       -2.0369513121
H                 2.8936298653       -2.6832750396       -0.3949906804
H                 5.1482068907       -0.8881864292       -1.4663665900
H                 5.3819151508       -2.2635455528       -0.3994748548
H                 4.2699915181       -1.1664250946        1.4416231057
H                 5.5473007123        2.2215107806        1.2207407441
H                 6.3602003144        1.7956443080       -0.2993223040
H                 3.7015748730        2.6147296272       -0.2514307522
H                 4.2705589444        1.4199878191       -1.4315851811
H                 3.0830780494        0.8929830932        1.3417944793
H                -1.2150088185       -0.0784233566        2.1970702441
H                -3.3115610039       -1.4433318761        1.9530698628



