%chk=./calculation/no_transfer_pubchem_sampling_2_b3lyp/127471528.chk
%nprocshared=7
%mem=6GB
#p b3lyp/6-31g(d) opt SCF=XQC 

Gaussian input prepared by ASE

0 1
C                -6.4929353125        0.4606480584       -0.0053364347
C                -6.2227435626       -0.8822904525        0.6306249857
S                -4.9379741863       -1.7499602552       -0.3302434283
O                -4.6528573315       -3.0033318255        0.3142638402
O                -5.3256593424       -1.7704641702       -1.7140632845
C                -3.4886702010       -0.6886916649       -0.1617349472
C                -3.1675523044        0.1903221644       -1.1803769358
C                -2.0655989399        1.0173705620       -1.0332134252
C                -1.3215322013        0.9424499069        0.1291477980
S                 0.1227194874        1.9905129859        0.2800135111
O                -0.1749480275        3.2932552834       -0.2345170338
O                 0.6336570809        1.8705616571        1.6158897564
N                 1.1155720337        1.2544640346       -0.8348060294
C                 1.9017566672        0.1247275105       -0.3748764127
C                 2.2053042245       -0.8106492572       -1.5453457946
C                 3.0254218395       -2.0016593006       -1.0612238212
C                 4.3512540240       -1.5220091495       -0.4843239925
C                 4.1334932020       -0.5807607114        0.7079413942
O                 5.3321776625        0.0765438550        1.0701385302
C                 5.4409530537        1.2845329678        0.3310549719
C                 4.0797980108        1.5541672192       -0.3334153930
C                 3.1575857094        0.5621974350        0.3850110705
C                -1.6388391831        0.0616141714        1.1453456507
C                -2.7403370714       -0.7676827663        0.9977665357
H                -5.6266578781        1.1125988567        0.0872806172
H                -6.7099614413        0.3169845727       -1.0611913009
H                -7.3446375071        0.9483840766        0.4637299394
H                -5.8468950582       -0.8098648686        1.6470278614
H                -7.0938598994       -1.5322318539        0.6061765133
H                -3.7765237534        0.1984651853       -2.0706399030
H                -1.7749912996        1.7245772078       -1.7928981136
H                 1.6322915984        1.9256072083       -1.3812331504
H                 1.2515628820       -0.4049412218        0.3312506110
H                 1.2625488232       -1.1423224048       -1.9824583517
H                 2.7572546876       -0.2702600744       -2.3162080977
H                 3.2103376239       -2.6852474805       -1.8912591282
H                 2.4652619929       -2.5430813203       -0.2961567176
H                 4.9156204163       -0.9938320536       -1.2544451940
H                 4.9563754046       -2.3677798536       -0.1553265575
H                 3.8116715448       -1.1599397140        1.5791124840
H                 5.7137507408        2.0731894679        1.0385601064
H                 6.2446734775        1.1937726453       -0.4101321494
H                 3.7643606984        2.5861327869       -0.1920563905
H                 4.1264400952        1.3448489889       -1.4027553962
H                 2.8334941999        1.0170010847        1.3259830660
H                -1.0254854541        0.0479417212        2.0326216763
H                -3.0166792259       -1.4858722150        1.7537384641



