%chk=calculation/no_transfer_pubchem_sampling_2_b3lyp/128409068_rwf.chk
%rwf=calculation/no_transfer_pubchem_sampling_2_b3lyp/128409068_rwf.rwf
%nprocshared=14
%mem=3GB
#p b3lyp/6-31g(d) 6D 10F nosymm GFInput td=(50-50,nstate=2) SCF=XQC 

Gaussian input prepared by ASE

0 1
O                 1.3208654023        0.0100613187        2.6175327901
C                 1.4742890048       -0.5839959562        1.5549643045
N                 0.4673606516       -0.8448963203        0.6597946336
C                -0.9241778801       -0.6114478739        1.0299870652
C                -1.5092464261       -1.7008413083        1.9434078556
C                -2.9390142029       -1.3004473479        2.3626009287
O                -3.5661257072       -0.4264437735        1.4200564133
C                -3.2791902372       -0.7797933888        0.0708194504
C                -4.2291015625       -0.0395369803       -0.8472482724
C                -4.7395742904        1.2159191684       -0.4937042656
C                -5.5774003473        1.9158855033       -1.3611922498
C                -5.8936961038        1.3489529007       -2.5904340031
F                -6.7043867637        2.0229402672       -3.4354396352
C                -5.4060208012        0.1053770970       -2.9725531009
C                -4.5750895906       -0.5843949042       -2.0890267129
C                -1.7890478987       -0.4618739225       -0.2383407382
N                 2.7226216214       -1.1019597923        1.1838970230
C                 3.9508371459       -0.6127964955        1.7869072740
C                 4.7082739271        0.3347196022        0.8757464003
C                 5.7915287784        1.0766513295        1.3587027746
C                 6.4949170448        1.9368203996        0.5182093163
C                 6.1220817632        2.0572090973       -0.8231944404
C                 5.0506783172        1.3131573229       -1.3123554417
C                 4.3415902713        0.4497324720       -0.4701166694
C                 3.1670346319       -0.3453247487       -0.9910182951
O                 2.8807307552       -1.4941160639       -0.1650659783
H                 0.6687770373       -1.5380855232       -0.0496102279
H                -0.9340028403        0.3293045277        1.5859022354
H                -0.8772185219       -1.8204927912        2.8285905363
H                -1.5100903632       -2.6610378881        1.4097709878
H                -3.5648645612       -2.1945802759        2.5107658448
H                -2.9245819100       -0.7388439595        3.3014799014
H                -3.4464596424       -1.8619398098       -0.0607209554
H                -4.4899812316        1.6344268734        0.4753230322
H                -5.9869624698        2.8856717740       -1.0974603657
H                -5.6842657803       -0.3086922589       -3.9361703519
H                -4.1976663339       -1.5644127437       -2.3727717156
H                -1.6925427790        0.5542692721       -0.6342383817
H                -1.4379542015       -1.1449468612       -1.0248717965
H                 4.5824052844       -1.4736670909        2.0441772520
H                 3.6546852850       -0.1214422008        2.7167392496
H                 6.0791312253        0.9833884706        2.4039244453
H                 7.3292071739        2.5138981080        0.9074813082
H                 6.6681189789        2.7232673895       -1.4855167214
H                 4.7637385052        1.3984257987       -2.3586844628
H                 3.3766740731       -0.7701496520       -1.9780012078
H                 2.2631175683        0.2760812391       -1.0666700328



