%chk=calculation/no_transfer_pubchem_sampling_2_b3lyp/129606214_rwf.chk
%rwf=calculation/no_transfer_pubchem_sampling_2_b3lyp/129606214_rwf.rwf
%nprocshared=14
%mem=3GB
#p b3lyp/6-31g(d) 6D 10F nosymm GFInput td=(50-50,nstate=2) SCF=XQC 

Gaussian input prepared by ASE

0 1
C                 4.6008652118       -0.9405679019        0.0389713075
C                 4.2151648539       -0.1001668472        1.2557631058
N                 3.4268332960        1.0889456948        0.9035767537
C                 3.9229863343        2.3508805049        0.8168632764
N                 3.0186801310        3.2445358233        0.4522602673
C                 1.8744270194        2.5215189172        0.2884306774
C                 2.0832536298        1.1765081404        0.5530340813
C                 1.1694452168        0.0188561166        0.5436618577
O                 1.4817530421       -1.0902759552        0.9882923587
N                -0.0729703471        0.2647353489        0.0222103593
C                -1.0840994725       -0.7829787669       -0.0777009661
C                -0.9214585852       -1.6310741109       -1.3515791175
C                -2.1359617795       -2.5320059173       -1.5156883881
O                -3.3370466518       -1.7687668341       -1.6763862057
C                -3.5154092262       -0.7225235578       -0.8121199266
C                -4.8017206342       -0.1701842469       -0.7736568553
C                -5.0773408600        0.8991385389        0.0713041736
C                -4.0730481869        1.4244460121        0.8898339424
C                -2.7940619812        0.8754288512        0.8406679552
C                -2.4857318363       -0.1941721813       -0.0113017746
H                 5.1585101489       -0.3465482632       -0.6931921680
H                 3.7076351226       -1.3516174466       -0.4376734141
H                 5.2320118571       -1.7779755625        0.3566263142
H                 5.1083252544        0.2700538308        1.7692952581
H                 3.6297125732       -0.6944560639        1.9566593753
H                 4.9604461810        2.5665012568        1.0389767718
H                 0.9475199006        3.0093176358        0.0117463756
H                -0.2391453810        1.1253588721       -0.4813412105
H                -0.9086580369       -1.4351697309        0.7857254757
H                -0.0048119408       -2.2254639916       -1.2826354135
H                -0.8371459741       -0.9761124048       -2.2280186753
H                -2.0666317536       -3.1521034002       -2.4126877650
H                -2.2477314207       -3.1963362968       -0.6455299815
H                -5.5652424293       -0.6017429656       -1.4133823272
H                -6.0794355287        1.3188005817        0.0955535323
H                -4.2844881809        2.2537646475        1.5584230939
H                -2.0054305658        1.2814506727        1.4687958755



