%chk=./calculation/no_transfer_pubchem_sampling_2_b3lyp/13187680.chk
%nprocshared=7
%mem=6GB
#p b3lyp/6-31g(d) opt SCF=XQC 

Gaussian input prepared by ASE

0 1
C                -5.1569992802       -0.1647010358        0.5927352791
C                -4.3215323006        0.3824439109       -0.5616308585
C                -5.1803383006        0.6625950224       -1.7899010352
O                -3.6908134411        1.6301554663       -0.2416851141
C                -2.7591566860        1.5948697375        0.7991382217
N                -1.5835337705        0.7979161140        0.4846224638
C                -0.7917405271        1.1606605320       -0.5714089171
N                -1.1536215944        2.2587577960       -1.2817709123
N                 0.3107387512        0.5475943304       -0.9014670744
C                 0.6246834455       -0.5083593148       -0.1215581281
C                -0.1275524833       -1.0118307744        0.9389304815
C                 0.5885502127       -2.1527939916        1.4342091072
C                 0.2773657531       -3.0664235610        2.5163025823
O                -0.6881968569       -3.0640981647        3.2335536184
C                 1.7179688880       -2.2575235405        0.6472445059
N                 1.7297721869       -1.2791463256       -0.2924528733
C                 2.7736930396       -1.0227098366       -1.2561505446
C                 3.9114506733       -0.2669096486       -0.6138569651
C                 5.1435213013       -0.8665864797       -0.4000717834
C                 6.1638753554       -0.1642455163        0.2188410941
C                 5.9552832015        1.1387347383        0.6354298792
C                 4.7245286394        1.7405601021        0.4292729407
C                 3.7069254407        1.0417066177       -0.1934361640
C                -1.3457977753       -0.3529761906        1.3036022930
O                -2.1437220068       -0.6320252255        2.1679274728
H                -5.7500057525       -1.0032432386        0.2389253317
H                -4.5247578634       -0.5174908025        1.4040046366
H                -5.8251470103        0.6082802109        0.9660170637
H                -3.5409226278       -0.3512864867       -0.8198701241
H                -5.6395290809       -0.2567510048       -2.1404731462
H                -5.9584492296        1.3772246522       -1.5359226277
H                -4.5728933250        1.0810807745       -2.5886111329
H                -3.1758403323        1.1736717714        1.7206921754
H                -2.4603626149        2.6358183829        0.9671813971
H                -0.6193268818        2.4083293573       -2.1215108862
H                -2.1357468868        2.4913534581       -1.3079880085
H                 1.0717595786       -3.8385315475        2.6361505540
H                 2.5101546938       -2.9793584724        0.7002439414
H                 2.3256528727       -0.4231843881       -2.0529222769
H                 3.1249035252       -1.9747889453       -1.6630553525
H                 5.3102013207       -1.8847245925       -0.7227935467
H                 7.1215028529       -0.6372970797        0.3783395336
H                 6.7503519958        1.6849322888        1.1206981886
H                 4.5588268980        2.7570589240        0.7539813036
H                 2.7442730016        1.5032419759       -0.3583045934



