%chk=calculation/no_transfer_pubchem_sampling_2_b3lyp/13187680_rwf.chk
%rwf=calculation/no_transfer_pubchem_sampling_2_b3lyp/13187680_rwf.rwf
%nprocshared=14
%mem=3GB
#p b3lyp/6-31g(d) 6D 10F nosymm GFInput td=(50-50,nstate=2) SCF=XQC 

Gaussian input prepared by ASE

0 1
C                -5.4807331219       -0.0275115011        0.6200804999
C                -4.5379021446        0.3261881519       -0.5290867478
C                -5.2697443247        0.5406070499       -1.8486015929
O                -3.8297290449        1.5661993171       -0.2770128082
C                -2.8786593496        1.5441582146        0.7653496038
N                -1.6818020787        0.7577488332        0.4428960123
C                -0.8525144088        1.1766901643       -0.5782099295
N                -1.2579758277        2.2806665081       -1.2863423250
N                 0.2962880461        0.6121454942       -0.8746963826
C                 0.6074415568       -0.4443497675       -0.0852980473
C                -0.1503439131       -1.0140581324        0.9408013765
C                 0.6072861955       -2.1337489333        1.4495944316
C                 0.3407299714       -3.1059916427        2.5084777023
O                -0.6463684462       -3.1671602856        3.2155677654
C                 1.7735374812       -2.1734092336        0.7079991333
N                 1.7753908067       -1.1637585079       -0.2236000017
C                 2.8400936918       -0.8656925005       -1.1856817144
C                 4.0508089309       -0.1995168746       -0.5601462833
C                 5.2736625256       -0.8729007995       -0.4815574272
C                 6.3880247541       -0.2590776789        0.0955644170
C                 6.2855762093        1.0362391176        0.6017318161
C                 5.0669588573        1.7168869209        0.5253113015
C                 3.9572510852        1.1043206831       -0.0537024394
C                -1.4212632358       -0.4205876841        1.2591405360
O                -2.2473599729       -0.7618689239        2.0907142933
H                -6.0694031073       -0.9128666540        0.3549583289
H                -4.9306894764       -0.2663428162        1.5346155964
H                -6.1714585987        0.8004034903        0.8167566035
H                -3.7972738389       -0.4770381525       -0.6490543266
H                -5.8058902662       -0.3687026136       -2.1393535332
H                -5.9958777157        1.3558764069       -1.7554437570
H                -4.5660323160        0.7958682647       -2.6480677271
H                -3.2714375888        1.1226581138        1.6892120142
H                -2.5840362751        2.5857715136        0.9117555108
H                -0.6861052426        2.4548373770       -2.1024860738
H                -2.2598811471        2.3755488306       -1.4228461426
H                 1.1695921435       -3.8438650106        2.6298667020
H                 2.6096776650       -2.8548795084        0.7838102204
H                 2.3855250097       -0.2189029517       -1.9402257899
H                 3.1297429442       -1.8025671288       -1.6726626562
H                 5.3584711241       -1.8827157078       -0.8779907355
H                 7.3324263793       -0.7939618639        0.1493382369
H                 7.1502690438        1.5157956524        1.0523769340
H                 4.9832804870        2.7279541577        0.9148018490
H                 3.0104435328        1.6349106111       -0.1174524437



