%chk=./calculation/no_transfer_pubchem_sampling_2_b3lyp/133439809.chk
%nprocshared=7
%mem=6GB
#p b3lyp/6-31g(d) opt SCF=XQC 

Gaussian input prepared by ASE

0 1
C                -4.3895425069       -0.5950666790       -1.4197804408
C                -4.1249142976        0.1215489064       -0.0903242017
C                -4.9152276191       -0.5492247859        1.0343083687
C                -4.5252894217        1.5969669379       -0.2077779377
C                -2.6674665703        0.0389398963        0.2219945249
N                -2.1544198475       -0.5025294850        1.2548126096
N                -0.8263799771       -0.4566444206        1.3267859361
C                -0.2787438768        0.1346526484        0.3152037690
N                 1.0438565541        0.2550181396        0.1152288953
C                 1.9733817763       -0.0714382055        1.1703357017
C                 3.2918999041       -0.5136364045        0.6084593514
C                 4.0180269115       -1.5769157507        1.0756100648
C                 5.2703350013       -1.8653893470        0.4928443319
N                 5.7878687272       -1.1704530342       -0.4806053407
C                 5.0850035597       -0.1402317878       -0.9410047077
C                 5.3217593928        0.7939021190       -1.9423729394
C                 4.2038862689        1.6167914833       -1.9355894049
N                 3.3146387674        1.2571821065       -1.0129052906
N                 3.8341415676        0.1994176265       -0.4062160553
S                -1.4429538217        0.7234238878       -0.8730349527
H                -3.8319658561       -0.1231510802       -2.2264833655
H                -4.0887207897       -1.6385638953       -1.3543142462
H                -5.4494397658       -0.5536784209       -1.6594409437
H                -5.9801112381       -0.4967639164        0.8205671848
H                -4.6225938336       -1.5907078747        1.1312808089
H                -4.7174581144       -0.0546109848        1.9808742290
H                -4.3222762824        2.1201019517        0.7242967923
H                -3.9679396739        2.0822118963       -1.0066727099
H                -5.5874316601        1.6772515577       -0.4266857562
H                 1.3959785490        0.9085716799       -0.5769120368
H                 1.5288480706       -0.8619577645        1.7780235631
H                 2.1511226521        0.8021543976        1.8193754707
H                 3.6356758653       -2.1819251004        1.8799688520
H                 5.8590727309       -2.6995796616        0.8469354455
H                 6.1813373539        0.8519760302       -2.5741967149
H                 3.9960425000        2.4623563340       -2.5617928549



