%chk=calculation/no_transfer_pubchem_sampling_2_b3lyp/133439809_rwf.chk
%rwf=calculation/no_transfer_pubchem_sampling_2_b3lyp/133439809_rwf.rwf
%nprocshared=14
%mem=3GB
#p b3lyp/6-31g(d) 6D 10F nosymm GFInput td=(50-50,nstate=2) SCF=XQC 

Gaussian input prepared by ASE

0 1
C                -4.5829049540       -0.7257391702       -1.3037055240
C                -4.2094260413        0.1175490457       -0.0628503668
C                -4.9703802184       -0.4138993967        1.1668927369
C                -4.5945911479        1.5947922588       -0.3081119391
C                -2.7176970227        0.0151449938        0.1957385110
N                -2.1803489746       -0.4340273027        1.2834890164
N                -0.8076306741       -0.4157133427        1.3009638426
C                -0.2989381709        0.0458497443        0.1877165819
N                 1.0424629331        0.1018050543       -0.0781116335
C                 1.9768279655       -0.1174336296        1.0235021667
C                 3.3264953849       -0.5539734961        0.5217678241
C                 4.0091967631       -1.6686340945        0.9415133112
C                 5.3081516126       -1.9310857600        0.4260875402
N                 5.9253635452       -1.1649995803       -0.4502718283
C                 5.2566691473       -0.0708468722       -0.8707247104
C                 5.5688286820        0.9521402054       -1.7660938161
C                 4.4487118215        1.7887274621       -1.7610721204
N                 3.4711605501        1.3719915292       -0.9366741743
N                 3.9685581648        0.2355655763       -0.3926095213
S                -1.5009786900        0.5253549629       -1.0097361450
H                -4.0760060591       -0.3662536877       -2.2065496323
H                -4.3132846226       -1.7775712836       -1.1597455621
H                -5.6632056852       -0.6705901180       -1.4815832404
H                -6.0490993053       -0.3427126791        0.9855729496
H                -4.7174408483       -1.4585989744        1.3681176527
H                -4.7268957959        0.1630897446        2.0632694819
H                -4.3354565660        2.2168761857        0.5553953327
H                -4.0861660592        2.0062113497       -1.1875793655
H                -5.6747336964        1.6761682668       -0.4767046010
H                 1.3647379936        0.8041123923       -0.7375524651
H                 1.5622910696       -0.8907867670        1.6708056630
H                 2.0974254788        0.7924785061        1.6335074742
H                 3.5551856100       -2.3382392447        1.6626916691
H                 5.8470629047       -2.8150741665        0.7618552428
H                 6.4833967371        1.0512701026       -2.3296775494
H                 4.2926591682        2.6970511858       -2.3287368018



