%chk=./calculation/no_transfer_pubchem_sampling_2_b3lyp/133585178.chk
%nprocshared=7
%mem=6GB
#p b3lyp/6-31g(d) opt SCF=XQC 

Gaussian input prepared by ASE

0 1
C                10.2841993033        0.4974367191       -0.6189454428
O                 9.5884887637        1.7110111734       -0.7711034638
C                 8.2377275385        1.7138173101       -0.6025068690
C                 7.6102524318        2.9540026952       -0.7572043954
C                 6.2452199114        3.0623041356       -0.5933846737
C                 5.4789903360        1.9504864909       -0.2905258074
C                 6.0832507163        0.7018423283       -0.1514385625
C                 5.3583286312       -0.5093556183        0.1450456194
C                 4.0523700743       -0.8102318490       -0.0374857179
S                 2.8909381456        0.3137363476       -0.7160673171
C                 1.6988568661       -1.0546702633       -1.3561903299
C                 0.6020230619       -0.4617269765       -2.1254926027
C                -0.6654594787       -0.4259020412       -1.6540156097
C                -1.0019514581       -1.0246368772       -0.4152729131
C                -2.3673098386       -1.0325880091        0.1564861231
O                -2.7140223808       -1.8631598381        0.9816629337
N                -3.2022927934       -0.0654217882       -0.2969630368
C                -4.5632038533        0.0835451390        0.1858938720
C                -5.5364567615        0.0510012110       -1.0036300026
C                -6.7633031162       -0.8393708784       -0.7891486084
C                -7.4718084184       -0.7023357407        0.5566254138
C                -8.1203737145        0.6497191009        0.8476378619
C                -7.1826321594        1.8521364353        1.0087163587
C                -5.9182941399        1.5868695193        1.8359599675
C                -4.6437675492        1.3720564047        1.0161927528
C                -0.0142564860       -1.7034046611        0.3038340365
C                 1.2879518110       -1.7574203623       -0.1315352080
N                 2.2768952784       -2.4353679328        0.5435033742
C                 1.9027154775       -3.5229501265        1.4278556840
C                 3.6252305199       -2.1506363239        0.4387377270
O                 4.4532578473       -2.9589608051        0.8270055053
C                 7.4745836772        0.6007052807       -0.2920376782
H                10.1698207785        0.0922044348        0.3915768425
H                 9.9561423651       -0.2488498863       -1.3497216776
H                11.3321913320        0.7352402219       -0.7941813955
H                 8.2196044298        3.8113479770       -0.9944116569
H                 5.7702058381        4.0260474153       -0.6988270194
H                 4.4174671738        2.0581282326       -0.1336577156
H                 5.9519113529       -1.3221733757        0.5488279998
H                 2.3838112653       -1.6397609518       -1.9776197383
H                 0.8581131391       -0.0216306593       -3.0767013715
H                -1.4377892597        0.0175646254       -2.2650295094
H                -2.8412687587        0.6702833577       -0.8816949358
H                -4.7212995854       -0.7860714043        0.8301362212
H                -5.8438622140        1.0652718668       -1.2554818469
H                -5.0001025522       -0.3412830391       -1.8723949525
H                -7.4772081973       -0.6409057336       -1.5925534337
H                -6.4466174986       -1.8813879569       -0.8820207291
H                -8.2667284883       -1.4532582782        0.5804889877
H                -6.7799366577       -0.9560112893        1.3588407134
H                -8.6864928127        0.5371844210        1.7765246575
H                -8.8398626972        0.8780842410        0.0572793183
H                -7.7626113392        2.6400557295        1.4963763348
H                -6.9001319050        2.2430802868        0.0318413802
H                -5.7334973879        2.4548623930        2.4737120828
H                -6.0761445461        0.7365884922        2.4995785502
H                -4.5038838406        2.2278680440        0.3479007642
H                -3.7998433330        1.3586154943        1.7119075090
H                -0.3200295493       -2.1826148563        1.2203750438
H                 1.1171884955       -4.1200421082        0.9680351533
H                 2.7888650866       -4.1349199268        1.5897591969
H                 1.5546747105       -3.1382993371        2.3882295805
H                 7.9311694126       -0.3691026298       -0.1693073450



