%chk=calculation/no_transfer_pubchem_sampling_2_b3lyp/133950684_rwf.chk
%rwf=calculation/no_transfer_pubchem_sampling_2_b3lyp/133950684_rwf.rwf
%nprocshared=14
%mem=3GB
#p b3lyp/6-31g(d) 6D 10F nosymm GFInput td=(50-50,nstate=2) SCF=XQC 

Gaussian input prepared by ASE

0 1
O                 0.0448294380       -3.0799188428        1.9881393893
C                 0.7445075290       -2.1206701655        1.6716256568
C                 1.7679306008       -1.5372379499        2.6548174558
C                 3.1527425621       -1.2248352031        2.0964312207
O                 3.0269956589       -0.1123630076        1.2025233250
C                 4.0937499240        0.2328637360        0.4245517268
C                 5.4239018625       -0.1231795162        0.6562811913
C                 6.4272811405        0.3230780038       -0.2116497266
C                 6.1154154237        1.1212248400       -1.3095817404
C                 4.7840884111        1.4759078881       -1.5550234328
C                 3.7992996805        1.0261808716       -0.6943159116
F                 2.5023782224        1.3339297000       -0.9258969787
N                 0.6571499899       -1.4970949300        0.4639699200
C                -0.3197544754       -1.8991338536       -0.5468319041
C                -1.6120585344       -1.1056004001       -0.5021543017
C                -2.5248340218       -1.2906150244        0.5514587108
C                -3.7047720218       -0.5626533611        0.6089605426
C                -4.0016828479        0.3710696109       -0.3939560184
O                -5.1939401662        1.0370544876       -0.2457191217
C                -5.5499236485        1.9842339320       -1.2230108768
C                -6.8951745217        2.5685296610       -0.8292757127
F                -6.8457106700        3.1840069207        0.3644602794
F                -7.2603150030        3.4838096589       -1.7558697196
F                -7.8544282117        1.6290261181       -0.7738293675
C                -3.1109331367        0.5684957681       -1.4503698959
C                -1.9244338850       -0.1733438570       -1.4904669242
H                 1.3533897583       -0.6201654746        3.0937997336
H                 1.8651884801       -2.2690402741        3.4611206857
H                 3.5725575818       -2.0844422298        1.5572223841
H                 3.8342729795       -0.9644196456        2.9168940701
H                 5.6812667156       -0.7396777447        1.5104998770
H                 7.4578477278        0.0404184541       -0.0182588884
H                 6.8967956345        1.4663778040       -1.9793895134
H                 4.4991855605        2.0863635099       -2.4058383814
H                 1.2114586376       -0.6637601658        0.3080928717
H                 0.1491342763       -1.7945692183       -1.5313545802
H                -0.5189711100       -2.9604023385       -0.3770628220
H                -2.2957370324       -2.0153088518        1.3278406008
H                -4.4163267210       -0.7017594508        1.4168676517
H                -4.8254746207        2.8070767093       -1.2821532148
H                -5.6534399127        1.5306762272       -2.2174700846
H                -3.3182442263        1.2832790667       -2.2391017431
H                -1.2352120280       -0.0134134628       -2.3169764326



