%chk=./calculation/no_transfer_pubchem_sampling_2_b3lyp/133950684.chk
%nprocshared=7
%mem=6GB
#p b3lyp/6-31g(d) opt SCF=XQC 

Gaussian input prepared by ASE

0 1
O                 0.7419282858       -3.5198154948        2.0083896296
C                 0.9854073351       -2.3401891458        1.8627544257
C                 1.8696384738       -1.5545625007        2.8320797696
C                 3.1728650789       -1.1083478145        2.1706328463
O                 2.8504684743       -0.1360661373        1.1939173208
C                 3.7959014968        0.2520186180        0.3007261421
C                 5.1567791453       -0.0140676005        0.3849109244
C                 6.0228858533        0.4574827522       -0.5892102856
C                 5.5551962229        1.1979380149       -1.6580377825
C                 4.2000898334        1.4707719895       -1.7640931456
C                 3.3452450995        0.9960031084       -0.7954407573
F                 2.0167915216        1.2403162538       -0.9011453982
N                 0.5167834358       -1.5974588482        0.8446732146
C                -0.3288686012       -2.1284446505       -0.2047072520
C                -1.5830623840       -1.3048436310       -0.3268115311
C                -2.7961093651       -1.7603072565        0.1760945760
C                -3.9308668240       -0.9812541098        0.0886127340
C                -3.8701656811        0.2790996640       -0.5010516680
O                -5.0574749448        0.9720091989       -0.5383729877
C                -5.0662330520        2.2435396398       -1.1175973985
C                -6.4950933009        2.7702670800       -1.0238615020
F                -6.9235813488        2.8719823997        0.2350066803
F                -6.5750128404        4.0001175755       -1.5609543714
F                -7.3683976897        2.0062389559       -1.6814951450
C                -2.6628325630        0.7485245267       -0.9982834070
C                -1.5313888019       -0.0457762421       -0.9066242164
H                 1.3291362109       -0.6756188271        3.1863716130
H                 2.1013748878       -2.2002116299        3.6784962378
H                 3.6700114028       -1.9665003661        1.7005269159
H                 3.8450441354       -0.6754607460        2.9240675921
H                 5.5459989195       -0.5848216015        1.2127287132
H                 7.0763490650        0.2401081618       -0.5031313264
H                 6.2361771461        1.5620572650       -2.4105198932
H                 3.8002228132        2.0394694461       -2.5883649605
H                 0.8051853191       -0.6341503290        0.7609467161
H                 0.2199043442       -2.1207261389       -1.1547104966
H                -0.5582133842       -3.1605989270        0.0684878706
H                -2.8498327324       -2.7337624328        0.6393314956
H                -4.8787884218       -1.3237818706        0.4706297703
H                -4.4151254967        2.9497202833       -0.5820962768
H                -4.7896031013        2.2180247770       -2.1816534473
H                -2.5831076283        1.7215798672       -1.4569736494
H                -0.5956253386        0.3294947228       -1.2942482895



