%chk=calculation/no_transfer_pubchem_sampling_2_b3lyp/135455065_rwf.chk
%rwf=calculation/no_transfer_pubchem_sampling_2_b3lyp/135455065_rwf.rwf
%nprocshared=14
%mem=3GB
#p b3lyp/6-31g(d) 6D 10F nosymm GFInput td=(50-50,nstate=2) SCF=XQC 

Gaussian input prepared by ASE

0 1
C                -3.4801930405        0.7968175234       -0.3956500091
C                -2.7327743690        0.9966194416        0.9315767831
C                -3.7398710121        1.1840774928        2.0810001980
C                -1.7913087056        2.2110525953        0.8301645757
N                -1.9420706734       -0.2382788472        1.1537791758
C                -1.1138559946       -0.4643058985        2.1989876298
O                -0.9434910375        0.2926178761        3.1491136688
C                -0.3644923466       -1.8096121726        2.2334238582
S                -0.3351179110       -2.8682741997        0.7362379506
C                 0.9259260247       -2.0370134748       -0.2180898839
N                 1.4862114784       -0.9548055699        0.1977597485
C                 2.4573629303       -0.3807036903       -0.6175282601
C                 3.0883179527        0.8004848490       -0.1854126176
C                 4.0579082241        1.3996217892       -0.9763971617
C                 4.4240628060        0.8417411723       -2.2139722795
C                 3.8115217450       -0.3218691722       -2.6545079364
C                 2.8294756043       -0.9381698823       -1.8646712400
C                 2.1801353374       -2.1704750072       -2.3248059999
O                 2.3940007896       -2.7688843684       -3.3674325314
N                 1.2226892945       -2.6530131170       -1.4119481472
H                -2.7800969841        0.6562962794       -1.2285321042
H                -4.0923483399        1.6761980759       -0.6183968759
H                -4.1461278494       -0.0735732645       -0.3490876484
H                -4.3377607948        2.0872413622        1.9135029042
H                -3.2169073134        1.2812626452        3.0347479403
H                -4.4213655338        0.3278102798        2.1402594164
H                -2.3705498240        3.1216759657        0.6388205626
H                -1.0774945951        2.0772823298        0.0096879961
H                -1.2326278517        2.3395290594        1.7597399069
H                -1.9587944816       -0.9377179527        0.4229672728
H                -0.8176218420       -2.4348045440        3.0092593368
H                 0.6658522644       -1.5971199583        2.5199182659
H                 2.7942370274        1.2192409939        0.7716626652
H                 4.5397575931        2.3115566460       -0.6340942861
H                 5.1848698361        1.3219957004       -2.8222110130
H                 4.0705510879       -0.7792506343       -3.6041053406
H                 0.7619865041       -3.5152513237       -1.6840055209



