%chk=./calculation/no_transfer_pubchem_sampling_2_b3lyp/135503718.chk
%nprocshared=7
%mem=6GB
#p b3lyp/6-31g(d) opt SCF=XQC 

Gaussian input prepared by ASE

0 1
C                -0.8977312580        0.8107887804        3.3867388758
C                -0.7045509490        1.5501615042        2.0486381529
C                 0.5470119951        2.4217297336        2.2338427545
C                -1.8563247341        2.5308640617        1.7568571892
C                -0.5399447779        0.5500603415        0.8976113169
C                 0.6377429242        0.5149803275        0.1703023829
C                 0.8151054725       -0.3796977905       -0.8778434720
C                 2.0592174558       -0.3867681100       -1.6155110147
N                 2.2866340561       -1.2102445519       -2.6183647629
S                 3.7688998354       -0.9747904217       -3.2403250094
C                 4.0687762484        0.2799956791       -2.0914375107
S                 5.5893168974        1.2080722768       -2.0034260483
C                 5.2903832983        2.3460360119       -0.6367673730
O                 5.7171764383        1.9376399429       -3.2321633295
O                 6.6332407198        0.2867897642       -1.6571260034
N                 3.0685729507        0.4732426453       -1.3001593436
C                -0.2060780947       -1.2641457420       -1.2123639056
C                -1.4001249146       -1.2725142871       -0.5195201590
C                -2.5171236860       -2.2436635946       -0.8877824507
C                -2.1338206638       -3.1457802321       -2.0656497622
C                -2.8252204851       -3.1524803103        0.3102944877
C                -3.7700422193       -1.4564676136       -1.2961369825
C                -1.5577349370       -0.3554954772        0.5412436556
O                -2.7418208603       -0.3848713260        1.2074148339
H                -1.7811301877        0.1794492694        3.4376158627
H                -0.9661390482        1.5340767198        4.1974837341
H                -0.0347199424        0.1739542497        3.5712216698
H                 0.3763793771        3.1166169396        3.0538935323
H                 0.7590041545        3.0057328611        1.3421628495
H                 1.4158331509        1.8183393147        2.4834010998
H                -2.8204825014        2.0617860387        1.5790054943
H                -1.6144141252        3.1116256877        0.8688268734
H                -1.9726408421        3.2193295110        2.5920193343
H                 1.4555921283        1.1767983144        0.3901935934
H                 4.4350103563        2.9541201725       -0.8974557803
H                 5.1001608887        1.7535335448        0.2476142718
H                 6.1789317743        2.9530607287       -0.5165246095
H                -0.0226362216       -1.9370494242       -2.0304091829
H                -1.9300942366       -2.5628866861       -2.9604381880
H                -2.9637378161       -3.8147426282       -2.2840737455
H                -1.2656097965       -3.7562606242       -1.8301973250
H                -3.1911125726       -2.5779362118        1.1540959735
H                -3.5854662729       -3.8803121890        0.0360483055
H                -1.9276495809       -3.6873662487        0.6139872977
H                -4.1456469982       -0.8619233969       -0.4706607326
H                -4.5532388194       -2.1439702748       -1.6073490830
H                -3.5403086287       -0.7940584785       -2.1282575595
H                -2.7374439518        0.2746371978        1.9094577923



