%chk=./calculation/no_transfer_pubchem_sampling_2_b3lyp/135511190.chk
%nprocshared=7
%mem=6GB
#p b3lyp/6-31g(d) opt SCF=XQC 

Gaussian input prepared by ASE

0 1
C                -2.3018335771       -3.4071274873       -2.1515900360
C                -1.1877073600       -2.6014815182       -2.8239863850
C                -0.2037780395       -2.1023918920       -1.8080703849
C                -0.3040620206       -0.9044585804       -1.1642141811
C                -1.4075700296        0.0862669340       -1.4535193322
C                -1.2945354585        1.2820798741       -0.5570439164
C                -1.9821373125        1.3725044528        0.6461308977
F                -2.8129995791        0.3674332193        0.9906898910
C                -1.8595793210        2.4502013050        1.5038587116
C                -1.0066974869        3.4849526968        1.1635620342
C                -0.2951322979        3.4380254048       -0.0225158897
C                -0.4504459895        2.3453018246       -0.8550168128
F                 0.2423585626        2.3125905262       -2.0104595921
N                 0.5834036894       -0.4957789785       -0.2174254091
C                 1.5695466460       -1.2734506554        0.0749722389
S                 2.7434098844       -0.7901465204        1.2722212241
C                 2.0537989255        0.8411522878        1.7880882241
C                 0.9525253427        0.6229795165        2.8082645453
C                 3.1902906562        1.6916341487        2.3260197183
N                 1.7618934616       -2.4762479660       -0.5085899765
C                 0.8949629924       -2.9910264197       -1.4846538639
O                 1.1192115381       -4.0804458649       -1.9677481439
H                -1.8777933393       -4.2726482559       -1.6490643941
H                -2.8307274698       -2.8050441860       -1.4155618794
H                -3.0151754590       -3.7534244149       -2.8952015776
H                -0.6537677190       -3.2559104065       -3.5153142240
H                -1.6146945577       -1.7691598325       -3.3851557496
H                -1.3289418273        0.4001178727       -2.4977562073
H                -2.3750115687       -0.3971603429       -1.3085832445
H                -2.4254948825        2.4632120085        2.4214777466
H                -0.8971434432        4.3313115462        1.8231151170
H                 0.3752962234        4.2321001238       -0.3098296207
H                 1.6421465999        1.2662136561        0.8713700721
H                 0.1576251729        0.0168083851        2.3813931851
H                 0.5326011383        1.5823072549        3.1035050605
H                 1.3439255136        0.1233117847        3.6919483009
H                 3.6221152958        1.2351490815        3.2140898464
H                 3.9733661739        1.8062858562        1.5805538877
H                 2.8125955675        2.6772011805        2.5896139023
H                 2.5541563543       -3.0532356194       -0.2495707829



