%chk=./calculation/no_transfer_pubchem_sampling_2_b3lyp/137251450.chk
%nprocshared=7
%mem=6GB
#p b3lyp/6-31g(d) opt SCF=XQC 

Gaussian input prepared by ASE

0 1
O                 4.1270061345        1.3839521893       -1.9614819019
C                 4.6212724496        0.8171322635       -1.0144551330
O                 5.2034826348        1.4606237548        0.0095053597
C                 4.8666737555       -0.6574054992       -0.9385352264
C                 6.0555263773       -1.2328773241       -1.3405808254
C                 6.2131441384       -2.6111087906       -1.2811296257
C                 5.1830003262       -3.4213734411       -0.8247134077
C                 3.9858513763       -2.8637926058       -0.4233321981
C                 3.8224555869       -1.4787136700       -0.4691673099
N                 2.6208072395       -0.9252376504       -0.1014061929
N                 2.6659599525        0.3335331769        0.0425892984
C                 1.4924207705        1.0078993511        0.2472762096
C                 0.2390270412        0.4184537942        0.0995937565
C                -0.9374863986        1.1420302916        0.2604880060
C                -2.2494440647        0.5690825460        0.1307069063
C                -2.3740750373       -0.8585295977       -0.2130514476
C                -2.7989733589       -1.2031966288       -1.4923743435
C                -2.8805834170       -2.5285544273       -1.8802261980
C                -2.5322539508       -3.5360959601       -0.9940600571
C                -2.1149111334       -3.2094454244        0.2807069734
C                -2.0374647986       -1.8778384269        0.6858258084
C                -1.6210012951       -1.6287620258        2.0861513446
O                -1.1080352702       -2.4595763869        2.7918487420
O                -1.8921640904       -0.3911263091        2.5325475538
C                -3.3490438036        1.3756081505        0.2896369601
C                -4.7002016195        0.9003027481        0.2001820849
C                -5.7500436655        1.7218678579        0.3632480191
C                -5.5972171722        3.1522914260        0.6464039923
O                -6.5613077868        3.8956112143        0.7832630498
C                -4.2268282161        3.6123329525        0.7573501521
C                -3.1745978922        2.7763959247        0.5935503113
O                -1.9176570439        3.2966295894        0.7251882455
C                -0.8403999078        2.5175790369        0.5677410127
C                 0.4062415897        3.1197841649        0.7120012448
C                 1.5728530941        2.3918141733        0.5570697782
O                 2.7804459206        2.9598267589        0.6984259634
H                 4.9663360827        2.3997342446       -0.0274358503
H                 6.8572932471       -0.6085146114       -1.7051353339
H                 7.1453613932       -3.0542580653       -1.5978629008
H                 5.3185332892       -4.4918211003       -0.7850027971
H                 3.1723688919       -3.4711678920       -0.0587196519
H                 0.2107097717       -0.6297989949       -0.1554022508
H                -3.0567380628       -0.4174064353       -2.1871818862
H                -3.2129763262       -2.7736544383       -2.8776114971
H                -2.5894406762       -4.5701337347       -1.2969498634
H                -1.8439895702       -3.9728049987        0.9941795710
H                -1.6179460969       -0.3155022900        3.4604000612
H                -4.8428820068       -0.1521417599       -0.0002738043
H                -6.7638681730        1.3561040933        0.2949304743
H                -4.0612524014        4.6546278588        0.9807119662
H                 0.4416463243        4.1749481818        0.9429942478
H                 2.6843688485        3.9026717457        0.8915716093



