%chk=./calculation/no_transfer_pubchem_sampling_2_b3lyp/139350773.chk
%nprocshared=7
%mem=6GB
#p b3lyp/6-31g(d) opt SCF=XQC 

Gaussian input prepared by ASE

0 1
C                 4.9209839706        2.1363709367        1.5471945815
N                 4.5234334670        1.7583304614        0.2200704163
C                 3.4655163811        2.2432065060       -0.4823195562
N                 3.3846824931        1.6766590031       -1.6478476409
N                 4.3989551470        0.8053716380       -1.7465929175
C                 5.0788346034        0.8480301736       -0.6318927616
C                 6.1867805804       -0.0993676821       -0.3239233630
F                 6.9085066493        0.3265964502        0.7724470219
C                 5.6117973339       -1.5070230890       -0.0422215367
C                 4.4257868331       -1.3703650668        0.8698768623
C                 4.5695116392       -1.3660821393        2.2498318202
C                 3.4655348867       -1.0977143847        3.0434084092
C                 2.2417163641       -0.7874681487        2.4826121949
C                 2.0897912498       -0.7749489992        1.0940292935
N                 0.8834239844       -0.4158094889        0.4871519550
C                 0.7186145174       -0.4928649964       -0.9579405580
C                -0.6867487227       -0.0417496869       -1.1648396655
C                -1.2360745373        0.3181503865        0.0615826962
C                -2.5292787230        0.7925361848        0.1724865237
C                -3.3012609870        0.8999284951       -0.9796141119
C                -4.7127598764        1.4158807064       -0.8916593888
N                -5.3066762900        1.0240519249        0.3640726414
C                -6.6167913507        1.5661753933        0.6918050131
C                -7.5974750579        0.8333513490       -0.2491205238
C                -6.9365170614       -0.5500430357       -0.3689719093
C                -5.6812036104       -0.3768652295        0.5140334499
C                -6.1219430696       -0.3794505437        1.9827539503
C                -6.7947454917        1.0030845735        2.1080088369
C                -2.7620693422        0.5286917150       -2.2067660963
C                -1.4564463031        0.0589095138       -2.3116005766
C                -0.8815001614       -0.3368519393       -3.6413161222
F                -0.3220990568       -1.5630187828       -3.6050124395
F                 0.0861101986        0.5003716804       -4.0499585469
F                -1.7940625867       -0.3706312132       -4.6214637256
C                -0.2302221853        0.0906457482        1.1220256334
O                -0.3615105427        0.3091445998        2.3061294583
C                 3.1853277511       -1.1115197268        0.3014733184
C                 5.4461036051       -2.3407354643       -1.3229968338
O                 6.6069654737       -3.1104819499       -1.0069381003
C                 6.7118348699       -2.5273390409        0.2910618764
H                 4.2072166316        2.8634516644        1.9296483303
H                 4.9306772148        1.2620062492        2.1991299610
H                 5.9187762690        2.5766981652        1.5348314904
H                 2.7972690949        2.9912384615       -0.1091816873
H                 6.8928201033       -0.1422165279       -1.1622371634
H                 5.5345486151       -1.5563528624        2.6945020221
H                 3.5652408449       -1.1064916149        4.1183703917
H                 1.4052973343       -0.5446943980        3.1145679803
H                 1.4237765843        0.1737500584       -1.4745814514
H                 0.8787347848       -1.5154139360       -1.3156893624
H                -2.9409272122        1.0650680176        1.1309014631
H                -4.6844715327        2.5121228554       -0.9101912801
H                -5.2759930890        1.0853916591       -1.7790049609
H                -6.6611102878        2.6528154240        0.6309388643
H                -8.5993007052        0.7869459182        0.1726471399
H                -7.6600035258        1.3392059686       -1.2131799399
H                -7.5727245810       -1.3534074423       -0.0037148145
H                -6.6602234684       -0.7825996773       -1.3978907128
H                -4.8698225928       -1.0659304407        0.2840080664
H                -6.7995962897       -1.2007269211        2.2067580089
H                -5.2561005460       -0.4566979076        2.6380806682
H                -7.8426376737        0.9384346756        2.3937726643
H                -6.2761542827        1.6280775743        2.8329208923
H                -3.3653825657        0.6024930425       -3.0995413914
H                 3.1051395834       -1.1335332099       -0.7723024764
H                 5.5328843369       -1.8044585192       -2.2695044097
H                 4.5485230237       -2.9662284449       -1.3296213518
H                 6.4352739744       -3.2393722257        1.0748862489
H                 7.7074429146       -2.1247344380        0.4895602317



