%chk=calculation/no_transfer_pubchem_sampling_2_b3lyp/140272272_rwf.chk
%rwf=calculation/no_transfer_pubchem_sampling_2_b3lyp/140272272_rwf.rwf
%nprocshared=14
%mem=3GB
#p b3lyp/6-31g(d) 6D 10F nosymm GFInput td=(50-50,nstate=2) SCF=XQC 

Gaussian input prepared by ASE

0 1
C                -3.4708765201       -2.4583433111       -0.8387464911
C                -2.8005124498       -1.2236337984       -0.2805770401
C                -3.5602960384       -0.1868242034        0.2730429456
C                -2.9606443017        0.9734630719        0.7761378749
C                -3.7993897594        2.0711098704        1.3902532495
C                -1.5687098030        1.0872534954        0.7137429629
C                -0.7749408276        0.0660345760        0.1694605422
C                 0.7031770401        0.2001602019        0.1147119689
C                 1.4352232665       -0.2708093016       -0.9868761422
C                 2.8222567025       -0.1488051055       -1.0556326879
C                 3.4972726756        0.4462398925        0.0085476172
O                 4.8819724943        0.6588050514        0.0365842877
C                 5.7234034853       -0.2091403509       -0.5726400505
F                 5.6785147014       -0.1174995590       -1.9216417685
F                 5.4671736359       -1.4905652397       -0.2548984461
F                 6.9623320500        0.0923593662       -0.1840148993
C                 2.8037402932        0.9259242364        1.1166658249
C                 1.4184154213        0.8045329434        1.1627814828
C                -1.4099698644       -1.0848925002       -0.3215550274
H                -2.7941479650       -3.3191444869       -0.8329549495
H                -3.7906742833       -2.3015094479       -1.8776854690
H                -4.3636270170       -2.7256371615       -0.2629904828
H                -4.6438960506       -0.2852243246        0.3133912699
H                -4.0166767008        1.8615341180        2.4462431023
H                -4.7616704356        2.1758757661        0.8773711921
H                -3.2869247442        3.0378648019        1.3489208175
H                -1.0944168668        1.9977533694        1.0717924791
H                 0.9089780675       -0.7153465815       -1.8263231484
H                 3.3578329588       -0.4988918867       -1.9290707495
H                 3.3582275898        1.3775097194        1.9328146470
H                 0.8861187408        1.1575475769        2.0409235443
H                -0.8072644950       -1.8976977980       -0.7193324562



