%chk=./calculation/no_transfer_pubchem_sampling_2_b3lyp/140272272.chk
%nprocshared=7
%mem=6GB
#p b3lyp/6-31g(d) opt SCF=XQC 

Gaussian input prepared by ASE

0 1
C                -3.4766364741       -2.4464866719       -0.7684492242
C                -2.7942431073       -1.2169831416       -0.2494966189
C                -3.5365762182       -0.1450608349        0.2273212944
C                -2.9207562338        1.0083613311        0.6940323181
C                -3.7376246859        2.1479765468        1.2239211209
C                -1.5357427412        1.0794926474        0.6840370925
C                -0.7690754318        0.0210035870        0.2067833942
C                 0.6988800746        0.1094478153        0.1960116646
C                 1.4327021236       -0.3539613700       -0.8909072864
C                 2.8152311657       -0.2751246811       -0.9159863238
C                 3.4733306996        0.2734015036        0.1696077588
O                 4.8747108950        0.4073670554        0.2667162083
C                 5.6534040370       -0.0071092761       -0.7052145129
F                 5.4514923228        0.6091554959       -1.8857607748
F                 5.5624518532       -1.3241904914       -0.9721652209
F                 6.9203352067        0.2234355674       -0.3717026112
C                 2.7657968894        0.7411673088        1.2676121165
C                 1.3888161607        0.6602710947        1.2755231447
C                -1.4106420946       -1.1220050045       -0.2598919430
H                -2.8554682939       -3.3267495261       -0.6205058030
H                -3.6656635409       -2.3430650265       -1.8375332346
H                -4.4317661053       -2.5997667781       -0.2717574590
H                -4.6157131444       -0.2097950168        0.2352798836
H                -3.8974722866        2.0237241582        2.2955578363
H                -4.7113091190        2.1854985784        0.7412340790
H                -3.2284102397        3.0960715168        1.0675880081
H                -1.0456809049        1.9784470253        1.0289930888
H                 0.9184520704       -0.7677709685       -1.7447020749
H                 3.3474447579       -0.6397532191       -1.7799661981
H                 3.3106179067        1.1587694900        2.0983700064
H                 0.8408909720        1.0103498587        2.1369203862
H                -0.8217755136       -1.9561155740       -0.6130241157



