%chk=calculation/no_transfer_pubchem_sampling_2_b3lyp/141877460_rwf.chk
%rwf=calculation/no_transfer_pubchem_sampling_2_b3lyp/141877460_rwf.rwf
%nprocshared=14
%mem=3GB
#p b3lyp/6-31g(d) 6D 10F nosymm GFInput td=(50-50,nstate=2) SCF=XQC 

Gaussian input prepared by ASE

0 1
C                 0.5884429815        0.5847802246       -4.2410002488
C                 0.6709205212        0.2814320829       -2.9737140621
C                 0.7992922270       -0.0985672820       -1.7056374411
N                 2.0051732224        0.2609818646       -1.0644630628
C                 2.3394981168       -0.3249790160        0.0337914377
C                 3.5499470113       -0.0604580022        0.8083278741
C                 4.5161793866        0.8706928162        0.6290301418
C                 4.5329581634        1.8771067961       -0.4912957635
C                 5.7000645194        0.9798456322        1.5704467059
C                 5.7955385601       -0.0189639930        2.7255404277
N                -0.1891951060       -0.8554523160       -1.0164704625
C                -0.7774773723       -2.0054532598       -1.7086732294
C                -1.9752535292       -1.7762511282       -2.6465197342
C                -0.9259603822       -0.1118901807        0.0363248686
C                -1.9729626939        0.8896934675       -0.5089682697
C                -2.4100553778        1.9373292060        0.5273640160
C                -3.4241019874        2.9673343653       -0.0006051956
C                -2.8806130357        3.8946741459       -1.0941172412
C                -1.4464714855       -1.0386721959        1.1677540766
C                -2.8445528310       -1.6661131095        1.0259091763
C                -3.2535395818       -2.5224312270        2.2385172729
C                -2.4438171903       -3.8131575051        2.4127725032
H                 0.2120008869        1.5512684404       -4.5780510244
H                 0.8962759207       -0.1080415663       -5.0257268142
H                 1.6937161437       -1.1091102001        0.4507557725
H                 3.6511485060       -0.7291429785        1.6598284700
H                 3.6247201856        1.8357680618       -1.0905510014
H                 5.3924785047        1.6888328916       -1.1513126599
H                 4.6699764275        2.8912894402       -0.0903348150
H                 5.7107391288        2.0040839215        1.9756925607
H                 6.6158943419        0.9170631487        0.9616907628
H                 4.9358331197        0.0589415763        3.4003904984
H                 5.8476270937       -1.0518085229        2.3635450556
H                 6.6983602455        0.1726914832        3.3153698866
H                 0.0369969323       -2.4557434678       -2.2866516073
H                -1.0550981187       -2.7466122787       -0.9487890678
H                -2.8668389248       -1.4462649912       -2.1051593719
H                -2.2260325465       -2.7179712727       -3.1513674417
H                -1.7425293308       -1.0310305578       -3.4115628804
H                -0.1486693121        0.5037232989        0.5057401736
H                -1.5217316840        1.3944923446       -1.3709638773
H                -2.8578478729        0.3639032687       -0.8867352573
H                -2.8514465418        1.4330593550        1.3978249363
H                -1.5210849077        2.4674862030        0.9018403418
H                -3.7709804965        3.5792083455        0.8432164952
H                -4.3122250969        2.4393075178       -0.3768595034
H                -1.9928883185        4.4370966051       -0.7451560181
H                -2.5968959002        3.3422275622       -1.9966162611
H                -3.6308770005        4.6383156130       -1.3866885662
H                -0.6935769150       -1.8219845478        1.3180690981
H                -1.4499857435       -0.4484095986        2.0945422912
H                -3.5879430321       -0.8680521035        0.9041188381
H                -2.9108813073       -2.2823068445        0.1206654642
H                -3.1752336416       -1.9152278636        3.1520221344
H                -4.3158155430       -2.7827907639        2.1382932115
H                -2.8172066743       -4.3995730626        3.2601497859
H                -2.5113295167       -4.4444060227        1.5175842128
H                -1.3826631479       -3.6117618199        2.5968703878



