%chk=./calculation/no_transfer_pubchem_sampling_2_b3lyp/141877460.chk
%nprocshared=7
%mem=6GB
#p b3lyp/6-31g(d) opt SCF=XQC 

Gaussian input prepared by ASE

0 1
C                 1.0154009444       -0.3447871217       -4.2446272619
C                 0.8647358717       -0.3265653022       -2.9586940518
C                 0.8340265009       -0.4687824745       -1.6432891638
N                 1.9208993683        0.0330492179       -0.9533224847
C                 2.3353024343       -0.4968405864        0.1317386245
C                 3.4501851587        0.0119008170        0.8817102139
C                 4.1523047734        1.1223928937        0.5969972390
C                 3.8332351092        1.9764355874       -0.5851508885
C                 5.3085459584        1.6032157918        1.4268163406
C                 5.6841733995        0.7501406736        2.6314330788
N                -0.2154755088       -1.1041066127       -0.9521742954
C                -1.0146631398       -2.0293168123       -1.7240928938
C                -2.0802494617       -1.4437719639       -2.6581177469
C                -0.7951742795       -0.3435572719        0.1519792011
C                -1.6993660947        0.8137527710       -0.3104450558
C                -1.8348712404        1.8900600260        0.7647671084
C                -2.7830350059        3.0207702266        0.3629624968
C                -2.2576244708        3.8611970949       -0.7948816965
C                -1.4229537824       -1.2711913177        1.2109976274
C                -2.9204744733       -1.5569651209        1.0903497418
C                -3.3864290425       -2.6125752997        2.0966574017
C                -2.9488986724       -4.0261694022        1.7295580050
H                 0.7027422337        0.4820431990       -4.8670425652
H                 1.4549934761       -1.1834759169       -4.7702290672
H                 1.8669170873       -1.3994326561        0.5484324572
H                 3.7099785310       -0.5789944066        1.7475227333
H                 2.7871288411        2.2753945127       -0.5601764387
H                 3.9554660277        1.4027185123       -1.5019734780
H                 4.4674744609        2.8592522771       -0.6196662332
H                 5.0757959448        2.6183394569        1.7667978227
H                 6.1773351169        1.6881976278        0.7652245419
H                 4.8583995305        0.6878200827        3.3361740636
H                 5.9602342342       -0.2553005095        2.3229193655
H                 6.5349673426        1.1939184081        3.1442072393
H                -0.3066356840       -2.6014461864       -2.3332353533
H                -1.4882286048       -2.7259850367       -1.0276813225
H                -2.9198488537       -1.0343812158       -2.1042633243
H                -2.4541515040       -2.2314289296       -3.3087026713
H                -1.6526964499       -0.6591356406       -3.2754098904
H                 0.0660430219        0.1329028883        0.6385967991
H                -1.2394368283        1.2478632156       -1.2007168729
H                -2.6901250806        0.4552401774       -0.5846906316
H                -2.2092334598        1.4337809559        1.6839595938
H                -0.8489848457        2.3086820132        0.9826722864
H                -2.9361325112        3.6702936124        1.2286256275
H                -3.7541492426        2.5984077252        0.0931933902
H                -1.2735009327        4.2600379176       -0.5582931753
H                -2.1792453560        3.2698950902       -1.7032221504
H                -2.9280667060        4.6952809069       -0.9906084771
H                -0.8662718133       -2.2094979696        1.1855893621
H                -1.2504509098       -0.8255587912        2.1938539805
H                -3.4748901409       -0.6356338881        1.2790212922
H                -3.1734134010       -1.8978586676        0.0864682565
H                -3.0057367599       -2.3591344485        3.0888647654
H                -4.4778087514       -2.5889728875        2.1470538540
H                -3.3393633070       -4.7413595734        2.4501393694
H                -3.3232332769       -4.2961184174        0.7439186797
H                -1.8654657759       -4.1146372514        1.7215026311



