%chk=./calculation/no_transfer_pubchem_sampling_2_b3lyp/144748846.chk
%nprocshared=7
%mem=6GB
#p b3lyp/6-31g(d) opt SCF=XQC 

Gaussian input prepared by ASE

0 1
C                 4.4749831987       -0.6794625172       -5.4682533416
C                 3.2189873982       -1.5172139786       -5.6946126939
O                 2.8770322847       -2.3000380806       -4.5710201533
C                 2.2875678273       -1.7160859546       -3.4884742428
C                 1.8686428102       -0.3884587381       -3.4114461673
C                 1.2610131285        0.0642327371       -2.2549541145
C                 1.0643212327       -0.7634900686       -1.1580751751
C                 1.4935922362       -2.1081963221       -1.2337037562
C                 2.0948295669       -2.5631688501       -2.4003820880
N                 1.2540208693       -2.9444457554       -0.1899057753
C                 0.8987715531       -2.4941800977        1.1374963689
C                 0.2873793317       -1.1165988959        1.1212474342
C                -0.3695279468       -0.6933784296        2.3485507750
N                -0.2562670282       -1.4694352135        3.3587516475
C                -0.8938606692       -1.2094570847        4.6097721777
C                -1.1457854670        0.5797375384        2.3191995218
C                -0.8453055935        1.5931308031        3.1551100546
C                -1.6822423944        2.8219720521        3.3363358404
N                 0.2534393376        1.5401360483        4.0029794184
C                -2.2881147413        0.5611179648        1.3911687226
N                -2.9868593413       -0.6533381316        1.3817805445
C                -2.5921834264        1.5282092937        0.5198591436
C                -1.9480188518        2.8107978672        0.0650701457
C                -2.8943297307        2.8081904155       -1.1489095125
C                -3.6275110349        1.5807504221       -0.5781649579
C                 0.4117594266       -0.3224928831        0.0433145387
H                 4.3242965078        0.0307398349       -4.6589756204
H                 5.3068563049       -1.3278575043       -5.2047512138
H                 4.7230040029       -0.1359582666       -6.3760357616
H                 3.3999471532       -2.2475766623       -6.4888740687
H                 2.3771732312       -0.8824699352       -5.9978777623
H                 1.9974279028        0.2925361217       -4.2369748513
H                 0.9283524258        1.0911129432       -2.1995597249
H                 2.4213951780       -3.5885876967       -2.4853479833
H                 1.6347357981       -3.8753475271       -0.2527189980
H                 1.7783948501       -2.4833702048        1.8060161081
H                 0.1792012255       -3.1942693419        1.5768901333
H                -1.7107882047       -0.4784101125        4.5606504522
H                -1.2706341636       -2.1614683589        4.9897568344
H                -0.1526461607       -0.8372289366        5.3208765525
H                -1.7971870458        3.0230252684        4.4010244617
H                -1.2034042170        3.6886140518        2.8796477951
H                -2.6619436123        2.6869134025        2.8897129986
H                 0.9575698025        0.8620186419        3.7555236367
H                 0.6255290223        2.4336054185        4.2828450560
H                -3.8797683197       -0.6162466591        0.9154944077
H                -3.0201678321       -1.1305174238        2.2694271881
H                -0.8821072420        2.7527907867       -0.1628744122
H                -2.1038759383        3.6631503436        0.7278771700
H                -2.3903665054        2.6050711258       -2.0913324541
H                -3.5043860319        3.7027848185       -1.2600934198
H                -4.6435953133        1.7906686254       -0.2350199543
H                -3.6553999120        0.7108949839       -1.2362298102
H                 0.0060501178        0.6765481221        0.0543408853



