%chk=calculation/no_transfer_pubchem_sampling_2_b3lyp/145808796_rwf.chk
%rwf=calculation/no_transfer_pubchem_sampling_2_b3lyp/145808796_rwf.rwf
%nprocshared=14
%mem=3GB
#p b3lyp/6-31g(d) 6D 10F nosymm GFInput td=(50-50,nstate=2) SCF=XQC 

Gaussian input prepared by ASE

0 1
C                10.1942678305        0.6331412698       -2.0114614252
C                 9.7561309051        0.1412534710       -0.8506962273
C                 8.5035716729       -0.6546660564       -0.7878771716
O                 7.7894725404       -0.9235730951       -1.7343366061
O                 8.2600037684       -1.0518407500        0.4844779977
C                 7.0706555156       -1.8452809750        0.6954679471
C                 5.8331471169       -0.9699885720        0.8719079408
C                 4.5849877865       -1.8064888633        1.1898928269
C                 3.3135888649       -0.9775026929        1.4375275452
C                 2.7990574886       -0.2146916386        0.2081609774
C                 1.4904951622        0.5390525110        0.4832266941
C                 0.9993332505        1.3101597700       -0.7416735332
O                -0.1781694372        2.0811631877       -0.4731552953
C                -1.4036903095        1.4924851627       -0.4937542219
C                -2.4836445868        2.3463809902       -0.2148910859
C                -3.7820273298        1.8577016737       -0.2159770770
C                -4.0456559745        0.5049176933       -0.4938609224
C                -5.4131335371       -0.1062128764       -0.5252524219
O                -5.6377592772       -1.1493721838       -1.1326840708
N                -6.3777422807        0.5787189339        0.1870752736
C                -7.7480892629        0.2788439944        0.3352179166
C                -8.3859052582       -0.7824726370       -0.3283134402
C                -9.7493691435       -1.0012165761       -0.1342733705
C               -10.4686817295       -0.1700856649        0.7142813237
F               -11.7898837041       -0.3906574815        0.8973796764
C                -9.8597555855        0.8852702781        1.3821069036
C                -8.4992045229        1.1048797386        1.1874465879
C                -2.9629062567       -0.3303987723       -0.7918614644
C                -1.6537632855        0.1429433440       -0.7857634407
H                11.1083239561        1.2155195308       -2.0766358438
H                 9.6379548415        0.4568569513       -2.9277404034
H                10.2858776753        0.2965056458        0.0844678762
H                 7.2829076591       -2.4198696518        1.6015308158
H                 6.9481411607       -2.5305639317       -0.1479408130
H                 6.0182367363       -0.2519320237        1.6822358986
H                 5.6865795707       -0.3936156861       -0.0476482842
H                 4.7818430488       -2.4180473251        2.0818366317
H                 4.4005682216       -2.5144548866        0.3687621347
H                 3.4971809171       -0.2661636806        2.2558919457
H                 2.5206614308       -1.6505982399        1.7918818530
H                 2.6485767548       -0.9248236446       -0.6186609054
H                 3.5604402356        0.4978236831       -0.1369086668
H                 1.6321762257        1.2535892072        1.3044464139
H                 0.7168322869       -0.1658533744        0.8132559322
H                 0.8307526792        0.6456934028       -1.5989412510
H                 1.7439611868        2.0526107917       -1.0445076164
H                -2.2763125446        3.3929638686       -0.0161523669
H                -4.5942057490        2.5586134488       -0.0384025162
H                -6.0492867993        1.3455577873        0.7563563356
H                -7.8092398486       -1.4238173147       -0.9789419945
H               -10.2564924946       -1.8171403186       -0.6390260583
H               -10.4453181119        1.5192684911        2.0395287817
H                -8.0147594917        1.9304819917        1.7049389165
H                -3.1673358913       -1.3693311101       -1.0287168388
H                -0.8433930769       -0.5417357951       -1.0067328135



