%chk=calculation/no_transfer_pubchem_sampling_2_b3lyp/146431843_rwf.chk
%rwf=calculation/no_transfer_pubchem_sampling_2_b3lyp/146431843_rwf.rwf
%nprocshared=14
%mem=3GB
#p b3lyp/6-31g(d) 6D 10F nosymm GFInput td=(50-50,nstate=2) SCF=XQC 

Gaussian input prepared by ASE

0 1
C                -6.6740773033        4.2727343684        2.4054745543
O                -5.9425272324        3.0543140405        2.1772207518
C                -5.4627795720        2.8969743702        0.9197861004
O                -5.6355279116        3.7108001943        0.0398594359
C                -4.6473779630        1.5971791654        0.7395334047
C                -5.5180357184        0.4239425614        0.2735937449
C                -6.8948025220        0.4112977698        0.5285331415
C                -7.7071804235       -0.6317761032        0.0855988098
C                -7.1394943687       -1.6855534427       -0.6262777273
C                -5.7672494584       -1.6888798163       -0.8723546149
C                -4.9305736491       -0.6557519927       -0.4272775770
C                -3.4346267637       -0.7288767147       -0.7041180883
C                -2.7869887252       -2.0509848453       -0.2437572099
C                -1.2521561444       -1.9145279070       -0.3303784272
O                -0.8357981247       -0.9658377956       -1.3206728108
C                -1.6498416201       -1.0166653650       -2.4870491760
C                -3.0800070929       -0.5046575415       -2.1972443470
N                -3.7755679988        1.2182819439        1.8333613605
C                -4.2803055038        0.6403078567        3.0789737021
C                -2.9931336601        0.4580550193        3.9213522148
C                -1.8927045470        1.2904911217        3.2108378990
O                -0.9871331863        0.3738615778        2.6055896175
C                 0.3323198685        0.8391361438        2.3288067395
C                 0.4839341543        1.5519915843        0.9778760404
C                 1.9366468994        1.6386957149        0.4750192485
C                 2.5419326173        0.2713990025        0.0804291487
C                 3.8799221299        0.3971168593       -0.6344660760
C                 4.0079790171        0.4635005624       -1.9795456842
C                 2.8724066859        0.3089259554       -2.9625841579
C                 5.3458081724        0.7594400771       -2.6240051866
C                 6.1129628028       -0.4939553948       -3.0550355692
C                 6.6837844989       -1.4039960488       -1.9848895503
C                 6.7566264875       -1.2146842737       -0.6369545369
C                 6.2297706798       -0.1257284817        0.1968049909
C                 5.0400174825        0.5165208764        0.2563050765
C                 7.5164265870       -2.2308122033        0.2251921404
C                 7.7535369953       -3.5751504537       -0.4687579923
C                 8.2338635995       -3.3387106440       -1.8960541610
N                 7.2303365002       -2.5470569590       -2.5918228845
C                -2.6967764816        2.1235318349        2.1939914866
H                -7.5489071550        4.3231463700        1.7520934281
H                -6.9765626438        4.2402116962        3.4524200936
H                -6.0388695176        5.1412350204        2.2137171721
H                -3.9902011920        1.8643197125       -0.0971700662
H                -7.3418202634        1.2273551194        1.0878275790
H                -8.7732200042       -0.6161903788        0.2954667408
H                -7.7574938202       -2.5043574637       -0.9855102647
H                -5.3334498032       -2.5187427903       -1.4245080025
H                -2.9413236768        0.0474653194       -0.1191589437
H                -3.1384485320       -2.8842699328       -0.8659228461
H                -3.0728640820       -2.2832582119        0.7877147593
H                -0.8592346008       -1.5320892062        0.6149665954
H                -0.7849212818       -2.8906462083       -0.5378448866
H                -1.6777399436       -2.0477113558       -2.8762606455
H                -1.1472661208       -0.3982570005       -3.2362862501
H                -3.7933043455       -1.0313928436       -2.8441920986
H                -3.1661365538        0.5619528706       -2.4368073770
H                -4.7973848867       -0.3028474967        2.8788370864
H                -4.9861458073        1.3088376493        3.5956144199
H                -3.1443210645        0.7908457761        4.9528079414
H                -2.6621939914       -0.5828785855        3.9489413172
H                -1.3397600645        1.9362019850        3.9087502953
H                 0.6840460248        1.4855087765        3.1502025674
H                 0.9488163168       -0.0656341741        2.3416042839
H                -0.1154062031        1.0098052385        0.2358812054
H                 0.0729550416        2.5677242935        1.0474372517
H                 1.9567238199        2.2912238798       -0.4066451958
H                 2.5718294893        2.1291219812        1.2273444819
H                 2.6805758587       -0.3454858790        0.9770963197
H                 1.8143378442       -0.2580777535       -0.5427769404
H                 1.9401984184       -0.0422736441       -2.5150166000
H                 2.6636372550        1.2625130476       -3.4700434815
H                 3.1477272764       -0.4025689288       -3.7551908457
H                 5.9723852554        1.3568624287       -1.9563039660
H                 5.1772209629        1.3611655541       -3.5286992841
H                 6.9555654429       -0.1895536653       -3.7000238718
H                 5.4643711529       -1.1069555126       -3.6995307055
H                 6.8976412332        0.0939862054        1.0349598856
H                 4.8930487105        1.1591719591        1.1269612049
H                 6.9575645205       -2.4019938985        1.1544369018
H                 8.4807625136       -1.7973384609        0.5368653749
H                 6.8186084562       -4.1472966620       -0.5048149017
H                 8.4858629500       -4.1736177460        0.0859071132
H                 8.3625826959       -4.2850024638       -2.4344569811
H                 9.2157283490       -2.8323831680       -1.8745909690
H                 7.4217073620       -2.4212582596       -3.5783242162
H                -2.1147069650        2.4049553879        1.3127566704
H                -3.0558226383        3.0535798010        2.6812288193



