%chk=calculation/no_transfer_pubchem_sampling_2_b3lyp/148035933_rwf.chk
%rwf=calculation/no_transfer_pubchem_sampling_2_b3lyp/148035933_rwf.rwf
%nprocshared=14
%mem=3GB
#p b3lyp/6-31g(d) 6D 10F nosymm GFInput td=(50-50,nstate=2) SCF=XQC 

Gaussian input prepared by ASE

0 1
C                 6.9561890525        2.7848519873        4.8092981398
O                 6.9848201266        2.2614655616        3.4697774555
C                 7.5658354394        1.0522619178        3.3306543185
O                 8.0271683084        0.4177100452        4.2552629709
C                 7.5390613086        0.5873026560        1.8841545868
C                 8.1376623764        1.6006222215        0.8791058739
C                 7.7016968220        1.2228174332       -0.5541651113
O                 6.7733328625        1.8623435844       -1.0724789340
N                 8.2946308781        0.1925510727       -1.2093250638
C                 9.4301223528       -0.6466804341       -0.7723342378
C                 9.5374646779       -1.7074865680       -1.8756053305
C                 9.0703832147       -0.9599623427       -3.1323834208
C                 7.9060478106       -0.0967390507       -2.6217172272
C                 6.5765595600       -0.8041458027       -2.7161606171
N                 6.3741532478       -2.0432984720       -3.1438474328
C                 5.0248645687       -2.2435445779       -3.0592066668
C                 4.3838806088       -1.1111534997       -2.5709158620
C                 3.0304254569       -0.8343134355       -2.3070727179
C                 1.8582873075       -0.5967580352       -2.0767128049
C                 0.4854360011       -0.3370369387       -1.8147999080
C                -0.4939533130       -1.3467530415       -2.0756883093
C                -1.8230911567       -1.1137354887       -1.8274173424
C                -2.2697690817        0.1325050310       -1.3046761382
C                -3.6375486358        0.3904126880       -1.0449171749
C                -4.0613042573        1.6113846668       -0.5388539398
C                -5.4664632217        1.9109378323       -0.2734840618
C                -6.1154037501        3.1200073084       -0.0910525780
N                -7.4549184857        2.9358037183        0.1145963134
C                -7.6466693548        1.6269222312        0.0655780410
C                -9.0010072856        0.9645752782        0.2275950542
C               -10.0735890951        1.9849731659        0.6523593104
C                -9.8858541922        2.0741292174        2.1771402706
C                -9.4898839659        0.6458675263        2.6012638820
N                -9.0456553741       -0.0022953817        1.3488458398
C                -8.9390741370       -1.3546568283        1.3056473539
O                -9.0610569916       -2.0503816118        2.3169745779
C                -8.6844715186       -2.0407156366       -0.0519430283
N                -7.7644846222       -3.1526083867        0.1609163004
C                -6.4227131886       -2.9363151808        0.0638615941
O                -5.8997410056       -1.9428380628       -0.4379066259
O                -5.7271216950       -3.9779031332        0.5585006514
C                -4.2969769204       -3.8565193167        0.4964029753
C               -10.0115093623       -2.5054812575       -0.7170387479
C                -9.7608578976       -2.9406921338       -2.1681717701
C               -10.7380279371       -3.6035853820        0.0751661212
N                -6.4742632767        0.9629989055       -0.1754372165
C                -3.0800012829        2.6178256771       -0.2810390050
C                -1.7493798584        2.3957339986       -0.5281601632
C                -1.2956778461        1.1503281810       -1.0462099447
C                 0.0687138625        0.8897998625       -1.3069389381
N                 5.4094303912       -0.1998329784       -2.3671341217
C                 9.6273847631        1.9025010951        1.0201763136
C                10.1810328744        2.8827695408        0.1798666984
C                11.5305482427        3.2186365104        0.2596942518
C                12.3562790812        2.5844529170        1.1920644239
C                11.8163729614        1.6182519857        2.0389180020
C                10.4628597736        1.2772981385        1.9539572769
H                 6.3934484942        2.1183769879        5.4678981185
H                 7.9720524359        2.8957738579        5.1970144950
H                 6.4650589198        3.7549938677        4.7325859029
H                 6.4877578931        0.4333188452        1.6108406956
H                 8.0348126692       -0.3848994123        1.8526381015
H                 7.5980112497        2.5385078080        1.0385107264
H                 9.2458512016       -1.0835933617        0.2122936392
H                10.3430266515       -0.0449684745       -0.7090522534
H                10.5539074265       -2.1029230979       -1.9599577368
H                 8.8579237016       -2.5416757733       -1.6744894866
H                 8.7496778829       -1.6314937395       -3.9296993614
H                 9.8663966400       -0.3086778750       -3.5109998436
H                 7.8328811130        0.8617451014       -3.1459360182
H                 4.5655922619       -3.1781225190       -3.3507223512
H                -0.1644726234       -2.3004855919       -2.4761723986
H                -2.5608809920       -1.8855031982       -2.0340575149
H                -4.3524791111       -0.3980808032       -1.2555474153
H                -5.6876515426        4.1129316110       -0.1210165046
H                -9.2829716356        0.4588988128       -0.7010796423
H                -9.9424622596        2.9448097596        0.1523457499
H               -11.0607478018        1.5779035902        0.4045144190
H                -9.0822767395        2.7810466331        2.4001213128
H               -10.7889488374        2.4140247275        2.6924703349
H               -10.3265618600        0.0693326566        3.0084381600
H                -8.6902362135        0.6269017532        3.3486535342
H                -8.1798181325       -1.3694558639       -0.7464170213
H                -8.0415680620       -3.8071394100        0.8841052590
H                -3.9568331366       -3.8532037372       -0.5426927392
H                -3.9635284634       -2.9396183483        0.9877611861
H                -3.9122784394       -4.7334164182        1.0173973165
H               -10.6620456409       -1.6182981912       -0.7344661336
H               -10.6994713815       -3.2391033507       -2.6484249620
H                -9.0763540751       -3.7952434520       -2.2046532363
H                -9.3213545358       -2.1311257208       -2.7631845078
H               -10.1717514592       -4.5429810415        0.0538355431
H               -11.7154680007       -3.8061168236       -0.3764679066
H               -10.8889984839       -3.3221207992        1.1206278486
H                -6.3348631314       -0.0479851971       -0.2176354898
H                -3.3966834664        3.5692809614        0.1350899448
H                -1.0192654093        3.1744070552       -0.3206358645
H                 0.8040831610        1.6644660637       -1.1078000694
H                 5.3673043514        0.7311921060       -1.9604375749
H                 9.5420092344        3.3867345192       -0.5423966146
H                11.9368721923        3.9792091632       -0.4018871995
H                13.4086337544        2.8466481373        1.2592503425
H                12.4458223471        1.1230238532        2.7735522833
H                10.0686726323        0.5280943508        2.6328507759



