%chk=calculation/no_transfer_pubchem_sampling_2_b3lyp/151859057_rwf.chk
%rwf=calculation/no_transfer_pubchem_sampling_2_b3lyp/151859057_rwf.rwf
%nprocshared=14
%mem=3GB
#p b3lyp/6-31g(d) 6D 10F nosymm GFInput td=(50-50,nstate=2) SCF=XQC 

Gaussian input prepared by ASE

0 1
C                 1.1638938001        3.2866632312        1.2717132118
C                 0.2304636266        2.2343356080        0.6936613728
O                 0.9679835944        1.0157673861        0.5874920025
C                 0.3287486465       -0.0788094158       -0.0811248325
O                 1.1894949610       -1.1817231083        0.1493916891
C                 2.4720309157       -1.1935029533       -0.4730394191
C                 3.1925273034       -2.4430784919        0.0101910703
C                -0.9565113814       -0.4972472902        0.6418766622
C                -0.9554951555       -0.5009995283        2.0417242957
C                -2.0749605238       -0.9314548248        2.7495308000
C                -3.2065201297       -1.3720446617        2.0583743936
C                -3.2043766370       -1.3827382492        0.6653467553
C                -2.0817202674       -0.9550705609       -0.0535624011
C                -2.0353675233       -0.9768014077       -1.5589067163
C                -1.2086274907        0.1987337734       -2.0669296749
N                 0.1318321886        0.1950814943       -1.4967121747
C                 1.0365166215        1.1080002194       -2.1811442909
H                 0.6344269653        4.2377299995        1.3979313930
H                 1.5423389090        2.9686201638        2.2486732798
H                 2.0216759503        3.4517969450        0.6112743741
H                -0.6414469900        2.0907436284        1.3457119649
H                -0.1438251463        2.5500064025       -0.2887866498
H                 2.3595623635       -1.2154752611       -1.5657187865
H                 3.0388151555       -0.2935251137       -0.2001113270
H                 2.6229875350       -3.3403995742       -0.2529901103
H                 4.1850025971       -2.5129082413       -0.4497028339
H                 3.3130653295       -2.4219548310        1.0980366930
H                -0.0654107141       -0.1652371188        2.5638802779
H                -2.0648384841       -0.9259112730        3.8362258049
H                -4.0862400069       -1.7048918901        2.6031078674
H                -4.0816880200       -1.7274200368        0.1220764127
H                -3.0460234461       -0.9351089537       -1.9816192065
H                -1.5731930181       -1.9113604972       -1.9072873005
H                -1.1006373018        0.1317474652       -3.1573237617
H                -1.7465995462        1.1449479967       -1.8604450658
H                 1.9747269229        1.2029127910       -1.6370823211
H                 0.6134356676        2.1213791131       -2.2947450497
H                 1.2539517290        0.7291960654       -3.1889883989



