%chk=./calculation/no_transfer_pubchem_sampling_2_b3lyp/153470571.chk
%nprocshared=7
%mem=6GB
#p b3lyp/6-31g(d) opt SCF=XQC 

Gaussian input prepared by ASE

0 1
C                 0.7330347341       -0.6715220537       -2.7385170004
C                 1.9752944169       -0.4509010159       -1.9497702221
N                 3.0660158546       -1.1713056935       -2.1528742141
N                 3.9902874571       -0.6930821820       -1.3236315329
C                 3.5326076755        0.3375865944       -0.5910579185
C                 2.2050007686        0.5195134751       -0.9454539491
C                 1.3355390677        1.6102416183       -0.4504775827
O                 1.6502866258        2.7796378975       -0.5920713928
N                 0.1703559831        1.2445847693        0.1441082153
C                -0.1173224999       -0.0807804176        0.6550100949
C                 0.0558012624       -0.0723684856        2.1839830639
C                -0.7601033027        1.0273285113        2.8594919629
C                -0.4594480703        2.3780345160        2.2142727762
C                -0.6849703134        2.2850646738        0.6964808258
C                -2.0947579843        1.9059742986        0.4136664146
N                -3.1390881229        2.7144919887        0.3870461476
N                -4.2051822075        1.9467365171        0.1997674071
C                -5.4880345646        2.5710381271        0.0447200709
C                -3.8707043827        0.6288268889        0.0824597720
C                -4.8226381622       -0.4533690131       -0.1009464445
C                -4.4976945874       -1.5213620430       -0.9374780079
C                -5.3800741893       -2.5693323186       -1.1036267732
F                -5.0499031745       -3.5827460377       -1.9160419915
C                -6.6063564992       -2.5918047269       -0.4469001122
F                -7.4587950646       -3.6102673945       -0.6131005164
C                -6.9186670493       -1.5271786964        0.3912262794
F                -8.0884448788       -1.5245699960        1.0466024138
C                -6.0461831042       -0.4716211979        0.5686606936
C                -2.4869668792        0.5742732119        0.2184942048
C                -1.5124339425       -0.5507387963        0.1936952159
C                 4.4044479858        0.9986480238        0.4177435484
O                 5.7366534549        0.5341028797        0.3805348285
C                 5.8948061514       -0.8615750132        0.1529881192
C                 7.4019748079       -1.1096802288        0.1747858916
C                 5.2009350671       -1.7041129914        1.2304959212
C                 5.3263708239       -1.2070663520       -1.2403867504
H                 0.9758824037       -0.7166383702       -3.7977633954
H                 0.0322911075        0.1412259561       -2.5646790025
H                 0.2705719387       -1.6202482381       -2.4660039818
H                 0.6228945474       -0.7718441334        0.2397538637
H                 1.1154567707        0.0947154584        2.3970373176
H                -0.2169764359       -1.0500233205        2.5855230154
H                -1.8252882861        0.8062255995        2.7691717429
H                -0.5170261827        1.0596488811        3.9233985482
H                -1.1045576086        3.1542689340        2.6256800881
H                 0.5809328026        2.6567759645        2.3920683113
H                -0.4192074555        3.2309135830        0.2172139814
H                -6.1025719662        2.0062603618       -0.6548230777
H                -6.0063467085        2.6529194839        1.0032025224
H                -5.3208411247        3.5762908040       -0.3391346121
H                -3.5667012358       -1.5364789446       -1.4782444444
H                -6.3244641116        0.3114777415        1.2537581459
H                -1.8528801575       -1.3770638472        0.8223457175
H                -1.4237212799       -0.9293169814       -0.8280146424
H                 4.4526162291        2.0745395346        0.2229702120
H                 3.9746337805        0.8603363552        1.4247821736
H                 7.7889872482       -0.9208706830        1.1717218499
H                 7.8935086267       -0.4310164531       -0.5162218652
H                 7.6214897475       -2.1347840061       -0.1086707583
H                 5.4790976914       -1.3374932952        2.2158179457
H                 5.5131932250       -2.7409668295        1.1421832122
H                 4.1183342552       -1.6609106080        1.1328523768
H                 5.3008025178       -2.2855251521       -1.4087194696
H                 5.9482475036       -0.7431161327       -2.0148362345



