%chk=calculation/no_transfer_pubchem_sampling_2_b3lyp/153896651_rwf.chk
%rwf=calculation/no_transfer_pubchem_sampling_2_b3lyp/153896651_rwf.rwf
%nprocshared=14
%mem=3GB
#p b3lyp/6-31g(d) 6D 10F nosymm GFInput td=(50-50,nstate=2) SCF=XQC 

Gaussian input prepared by ASE

0 1
C                -2.7849137335        2.1190531747       -0.4447300451
C                -2.4461974461        0.8537927088        0.2904874966
C                -1.4536856136       -0.0257635494        0.0455612140
C                -1.2665158197       -1.2357436382        0.8805347660
C                -2.0712627920       -1.3963971810        2.1492189404
C                -0.3819186642       -2.1873690436        0.5176456571
C                 0.4461591366       -2.1533974636       -0.7458525441
C                 1.8886684154       -1.6711386841       -0.4622727597
C                 1.9380592832       -0.1792233245       -0.2392441612
N                 3.1070520963        0.3335660910        0.2605861997
C                 3.3872493370        1.6892675460        0.5311631878
O                 4.4844301130        2.0138428671        0.9784832081
C                 2.2686557007        2.5602245934        0.2253477308
C                 1.0980328711        2.0625842380       -0.2695032560
C                 0.8984866096        0.6701816107       -0.5270197769
C                -0.4254921806        0.1440062717       -1.0745432996
C                -0.2027362838       -1.2106705677       -1.7677751946
H                -3.8311389094        2.1015811943       -0.7792926415
H                -2.6892988264        2.9905777060        0.2182440858
H                -2.1589901162        2.3001390220       -1.3221575253
H                -3.1096990456        0.6460959406        1.1279629086
H                -3.1467348869       -1.4648594839        1.9408969127
H                -1.7793617624       -2.3065600195        2.6813373361
H                -1.9295907219       -0.5449255015        2.8262696839
H                -0.2367362911       -3.0473420104        1.1707709369
H                 0.5094565172       -3.1702475221       -1.1545798683
H                 2.5401654862       -1.9308898620       -1.3107395365
H                 2.2993840493       -2.1897622229        0.4150190279
H                 3.8754768071       -0.2924004658        0.4770278917
H                 2.4130330088        3.6187367187        0.4105712412
H                 0.2794895973        2.7467552161       -0.4846200579
H                -0.8015375792        0.8627806922       -1.8089011656
H                 0.4421454014       -1.0866196450       -2.6468530560
H                -1.1601317577       -1.6198734061       -2.1090405371



