%chk=./calculation/no_transfer_pubchem_sampling_2_b3lyp/153896651.chk
%nprocshared=7
%mem=6GB
#p b3lyp/6-31g(d) opt SCF=XQC 

Gaussian input prepared by ASE

0 1
C                -2.7819419659        2.0845566923       -0.5199381749
C                -2.4182982359        0.8581553555        0.2483027166
C                -1.4254351442       -0.0047586574        0.0161832408
C                -1.1855184040       -1.1689714464        0.8742699048
C                -1.9119465658       -1.2667842217        2.1842437941
C                -0.3345685300       -2.1301590641        0.5062709899
C                 0.4282750455       -2.1464872129       -0.7845472029
C                 1.8701491907       -1.6769184552       -0.5417950920
C                 1.9043548331       -0.2087599907       -0.2477810634
N                 3.0424872227        0.2838330638        0.3044965695
C                 3.2803731404        1.6125966335        0.6444438690
O                 4.3512529796        1.9233660278        1.1364598491
C                 2.1711769888        2.4823848015        0.3541123100
C                 1.0295789681        2.0078363031       -0.2011523571
C                 0.8711207941        0.6378521725       -0.5281378640
C                -0.4270405431        0.1410286536       -1.1139596205
C                -0.2311925334       -1.2124216088       -1.7914348343
H                -3.8284874288        2.0302084875       -0.8211235358
H                -2.6750171511        2.9612356286        0.1203584052
H                -2.1757357602        2.2317192165       -1.4084486541
H                -3.0737108099        0.6816055920        1.0899021572
H                -2.9808967661       -1.3997563445        2.0227077955
H                -1.5474455096       -2.1165285226        2.7557529426
H                -1.7639827664       -0.3625485258        2.7719399772
H                -0.1513076823       -2.9664543580        1.1675154889
H                 0.4555263704       -3.1707705178       -1.1724822915
H                 2.4780391979       -1.8775593391       -1.4308417605
H                 2.3113749638       -2.2305652583        0.2915671439
H                 3.8066774598       -0.3518127443        0.5040188903
H                 2.2942906360        3.5246611302        0.6007665646
H                 0.2090420232        2.6799724870       -0.4072845696
H                -0.7861682033        0.8666131243       -1.8465459020
H                 0.3948141318       -1.1053690855       -2.6796343269
H                -1.1998379458       -1.6109980166       -2.0982023597



