%chk=calculation/no_transfer_pubchem_sampling_2_b3lyp/154690777_rwf.chk
%rwf=calculation/no_transfer_pubchem_sampling_2_b3lyp/154690777_rwf.rwf
%nprocshared=14
%mem=3GB
#p b3lyp/6-31g(d) 6D 10F nosymm GFInput td=(50-50,nstate=2) SCF=XQC 

Gaussian input prepared by ASE

0 1
C                 7.4974614081        0.0908488377       -2.5986312499
C                 6.0970715518       -0.3214613347       -3.0112634506
O                 5.2128818634        0.0025665967       -1.9146643160
C                 3.9131947901       -0.3000924221       -2.1095619026
O                 3.4767586818       -0.8127778677       -3.1277547045
C                 3.0707957991        0.0507226135       -0.9675303448
S                 1.3610084190       -0.2811844558       -1.0742138923
C                 1.1558434673        0.3765621842        0.5309488080
C                -0.1400838110        0.4501277113        1.2066120921
C                -0.1903377382        1.0047304883        2.5297468360
C                -1.3754246856        1.1085351070        3.1923700387
N                -2.5246212838        0.6715763880        2.5891150649
N                -3.7527830724        0.7413014545        3.1425527784
C                -4.5565198471        0.2097964600        2.2100259316
C                -3.8811284492       -0.2109188228        1.0485581762
C                -4.4366252436       -0.8408521042       -0.1519040095
C                -4.1181739465       -2.1299048145       -0.6957024198
C                -3.1501316587       -3.1450030714       -0.1689645200
N                -4.8372947527       -2.3887858963       -1.7774649603
N                -5.6252413768       -1.2852528270       -1.9442228926
C                -6.5037339971       -1.2519782614       -3.0608289377
F                -7.7815644062       -1.0083238761       -2.6552072954
F                -6.1719440060       -0.2387115848       -3.9123038755
C                -5.4152968935       -0.3249571290       -0.9872859345
C                -6.1499320467        0.9767407129       -0.9586640557
C                -2.5348062232        0.1069661528        1.3121539749
C                -1.3125878350        0.0113428314        0.6162255539
N                 2.2701039588        0.8039024290        1.0925301339
C                 3.3399656316        0.6278246851        0.2686371465
O                 4.5674392993        0.9963114800        0.6487611337
C                 4.7157947557        1.5844029150        1.9584120378
C                 6.1878291809        1.9062210617        2.1344542525
H                 7.5433399513        1.1648343290       -2.3920207434
H                 7.8135094969       -0.4464166507       -1.6988002770
H                 8.2041133533       -0.1372168222       -3.4041313096
H                 5.7585368685        0.2087182378       -3.9074035461
H                 6.0271145749       -1.3944998367       -3.2172443945
H                 0.7254241928        1.3455364955        2.9943774062
H                -1.5026881513        1.5205986151        4.1852693814
H                -5.6169950343        0.1323629078        2.4139481855
H                -3.3387216812       -3.3544790467        0.8902359193
H                -3.2478547089       -4.0753461073       -0.7339454782
H                -2.1111835625       -2.8042528714       -0.2499148510
H                -6.4449791788       -2.2089468151       -3.5793609418
H                -5.6969367579        1.6357672515       -0.2141941706
H                -7.2063004437        0.8377607202       -0.7014756423
H                -6.1148879453        1.4714583573       -1.9346596664
H                -1.3269706956       -0.4009869062       -0.3877196846
H                 4.3604699634        0.8753474204        2.7140931181
H                 4.0917398332        2.4824158774        2.0229549947
H                 6.5261579443        2.6108481909        1.3684150315
H                 6.7956802637        0.9990475035        2.0613671428
H                 6.3535151834        2.3571725081        3.1189083288



