%chk=./calculation/no_transfer_pubchem_sampling_2_b3lyp/154690777.chk
%nprocshared=7
%mem=6GB
#p b3lyp/6-31g(d) opt SCF=XQC 

Gaussian input prepared by ASE

0 1
C                 7.5073788669       -0.0174592518       -2.3743547347
C                 6.1244737985       -0.4301827349       -2.8406972603
O                 5.1906537261       -0.0893387379       -1.8176207996
C                 3.9148057011       -0.4108298854       -2.0606282432
O                 3.5341457226       -0.9555448919       -3.0718306266
C                 3.0416008024       -0.0276092074       -0.9640245440
S                 1.3436806272       -0.3346934187       -1.0582765949
C                 1.1595578739        0.3810794141        0.5230960369
C                -0.1154967096        0.4846612786        1.1794947403
C                -0.1790869507        1.0387610645        2.4914366985
C                -1.3688517841        1.1534162022        3.1301491424
N                -2.5014208915        0.7296496077        2.5208486262
N                -3.7182750601        0.7967045166        3.0254029291
C                -4.5260899509        0.2832630002        2.1034486606
C                -3.8314441951       -0.1385533964        0.9666597702
C                -4.3849903595       -0.7559238008       -0.2201415895
C                -3.9201124788       -1.9139698186       -0.9074029818
C                -2.7513626277       -2.7711455846       -0.5800505827
N                -4.7110447653       -2.1955539382       -1.9172361647
N                -5.6761450555       -1.2553513592       -1.9215281056
C                -6.6760505627       -1.3102405218       -2.9050065781
F                -7.9141407345       -1.3911119217       -2.3603173506
F                -6.6986383833       -0.1891392413       -3.6679522222
C                -5.5208364153       -0.3618647805       -0.8974485899
C                -6.4500820773        0.7721496166       -0.6874896022
C                -2.4898093063        0.1655805877        1.2510992960
C                -1.2767454457        0.0598336209        0.5699079954
N                 2.2756065993        0.7995851569        1.0508076878
C                 3.3334059915        0.5872239315        0.2484177897
O                 4.5601671863        0.9430362926        0.6011868598
C                 4.6938342640        1.5613875627        1.8778217563
C                 6.1619248614        1.8878037999        2.0826011675
H                 7.5322995598        1.0522410188       -2.1860738876
H                 7.7598241728       -0.5363681031       -1.4538290080
H                 8.2398387825       -0.2643395297       -3.1374434227
H                 5.8424951701        0.0866189600       -3.7656228191
H                 6.0690331985       -1.5090393011       -3.0276710241
H                 0.7352800133        1.3662344954        2.9542340450
H                -1.4916630037        1.5703671962        4.1167610382
H                -5.5782855193        0.2159448631        2.2972139832
H                -2.4705701529       -2.6489945192        0.4629056758
H                -3.0009363589       -3.8108553374       -0.7748691848
H                -1.8991581752       -2.5119418441       -1.2071031987
H                -6.5073598921       -2.1825083033       -3.5537568995
H                -6.0444590678        1.4419009403        0.0660098842
H                -7.4239644662        0.4123037450       -0.3538567268
H                -6.5962973051        1.3249494619       -1.6146759183
H                -1.2638090513       -0.3456916885       -0.4284950079
H                 4.3278829396        0.8758344302        2.6514239749
H                 4.0776818973        2.4679417522        1.9065256602
H                 6.5057901060        2.5590969990        1.3008009405
H                 6.7541711392        0.9780502687        2.0414044913
H                 6.3015947461        2.3626303337        3.0493788181



