%chk=./calculation/no_transfer_pubchem_sampling_2_b3lyp/155668591.chk
%nprocshared=7
%mem=6GB
#p b3lyp/6-31g(d) opt SCF=XQC 

Gaussian input prepared by ASE

0 1
C                -6.3007714470       -0.4588350688        1.1443181683
C                -5.0782524628       -1.0113907480        0.4137501808
O                -5.5357171455       -2.2133767164       -0.1950713578
C                -4.5725060616       -0.0425094141       -0.6666431691
C                -3.9020296005        1.1969079748       -0.0829001912
C                -2.7440274695        0.8556287848        0.8630185184
C                -3.2628377002       -0.0827225824        1.9621554312
C                -2.1360306917       -0.4348158587        2.9360947674
C                -0.9326640978       -1.0301231004        2.2171433428
C                -0.4110276198       -0.0861628392        1.1343449988
C                -1.5107730326        0.2957662610        0.1332955496
C                -0.9739610597        1.3246734569       -0.8846643470
C                 0.5537568159        1.3394490812       -1.0071931990
C                 1.1272992757       -0.0710842624       -0.9652083801
C                 0.8135318171       -0.8486601087       -2.2327501555
C                 2.6136873525       -0.1428899478       -0.5274308056
C                 3.5214798327        1.0264650519       -0.7260192247
O                 3.3928856972        1.8820138070       -1.5607058804
C                 4.7690291920        1.0160226159        0.1871782323
N                 5.9044102791        0.6875578435       -0.6273137337
C                 6.6024464671        1.5051023220       -1.4300002699
C                 7.5369604758        0.7130135244       -2.0812891522
C                 8.5120472358        1.1037802174       -3.0068828474
N                 9.3242438036        1.4075378902       -3.7575956479
C                 7.2925241685       -0.5906366160       -1.5907987379
N                 6.3043526237       -0.5793151958       -0.7260936218
C                 2.1698649934       -0.5107201062        0.9017238642
C                 0.7417586767       -0.7410277925        0.3763379330
C                -3.9261222406       -1.3318057004        1.3802516164
H                -7.1013411205       -0.2948752211        0.4281830277
H                -6.6416824611       -1.1875276769        1.8746243778
H                -6.0770370829        0.4745084506        1.6488482381
H                -4.8101425202       -2.6100061445       -0.6899150520
H                -3.8608115010       -0.5746783072       -1.3045012708
H                -5.4123329015        0.2552651696       -1.2976132091
H                -3.5492905077        1.8275149488       -0.8996343854
H                -4.6427246812        1.7748777637        0.4731024428
H                -2.4264544758        1.7861824217        1.3511246956
H                -4.0257360643        0.4633253885        2.5280479292
H                -1.8251262303        0.4745124203        3.4565396335
H                -2.5041014008       -1.1373824684        3.6866098111
H                -0.1339979317       -1.2266674436        2.9363145045
H                -1.2077421908       -1.9860845380        1.7683269800
H                -0.0602754732        0.8296315733        1.6214305340
H                -1.7905495755       -0.6158749774       -0.4007938489
H                -1.4126184477        1.1265185678       -1.8633368203
H                -1.2891150872        2.3269481579       -0.5874579584
H                 0.9760978810        1.9159498907       -0.1825904962
H                 0.8432241978        1.8404018808       -1.9311125301
H                 1.1792727611       -1.8713261922       -2.1583941917
H                -0.2574468929       -0.8814591727       -2.4121865192
H                 1.2912302952       -0.3725339743       -3.0866273474
H                 3.1209563986       -0.9894630702       -1.0025888442
H                 4.6856770157        0.2614765456        0.9687091857
H                 4.9061059496        2.0098864580        0.6210993413
H                 6.4066586353        2.5556687837       -1.4964864233
H                 7.8022095542       -1.4990700592       -1.8402413937
H                 2.6630209149       -1.3707632791        1.3491836456
H                 2.2253323392        0.3310643699        1.5903979181
H                 0.5339098362       -1.8042209623        0.2404820708
H                -3.1881994841       -1.9258684070        0.8368484002
H                -4.3105288260       -1.9527126700        2.1925576730



