%chk=./calculation/no_transfer_pubchem_sampling_2_b3lyp/156388997.chk
%nprocshared=7
%mem=6GB
#p b3lyp/6-31g(d) opt SCF=XQC 

Gaussian input prepared by ASE

0 1
C                -3.3280985479       -2.4426331362       -1.5011898236
C                -1.9317545146       -2.9815684776       -1.2104066869
C                -1.0764318988       -2.0359787290       -0.3640179668
C                -0.6812438344       -0.7638806036       -1.1301520755
C                 0.1162219272       -1.0935330707       -2.3037703663
N                 0.7414276902       -1.2998111521       -3.2391790139
N                -0.0555998677        0.2378412770       -0.2807487985
C                 1.1090051605       -0.1255139912        0.5182451435
C                 0.6747159048       -0.8439258191        1.7041733854
N                 0.3276023705       -1.3925258784        2.6453946687
C                 2.2307802425       -0.9029048393       -0.2006299675
C                 3.4835262629       -1.0467010183        0.6653819355
C                 4.1862614962        0.2805731390        0.9313493987
C                -0.0511420018        1.5979072507       -0.8028613409
C                 1.2473575036        2.0021438992       -1.3149108595
N                 2.2873810582        2.3141907031       -1.6737162137
C                -0.5048802205        2.5996371962        0.2799003103
C                -1.9208833425        2.2899157052        0.7587091230
C                -2.3533394306        3.2410675802        1.8665764816
H                -3.9250152036       -3.2065106631       -1.9930271653
H                -3.2961426329       -1.5761811063       -2.1581288485
H                -3.8279864391       -2.1605488077       -0.5768476714
H                -2.0268509651       -3.9222116889       -0.6645387241
H                -1.4170698897       -3.1952923226       -2.1504963663
H                -0.1819296457       -2.5696219437       -0.0391540171
H                -1.6286605820       -1.7369793938        0.5288575829
H                -1.6099513463       -0.3073314849       -1.5024834691
H                 1.5420445470        0.8159128347        0.8798189953
H                 2.4869241437       -0.3697795937       -1.1185567953
H                 1.8759578728       -1.8979415904       -0.4781857135
H                 3.2212676226       -1.5237698123        1.6133645396
H                 4.1732844318       -1.7103349143        0.1401304870
H                 3.6188277798        0.9048840151        1.6184256024
H                 5.1607526622        0.1018639237        1.3787002433
H                 4.3279022954        0.8291353640        0.0026566945
H                -0.7605860010        1.6539603378       -1.6384773822
H                -0.4594709766        3.6086399602       -0.1359142974
H                 0.1796912682        2.5590101005        1.1300829146
H                -2.6148540356        2.3708141227       -0.0817608681
H                -1.9530684738        1.2624755385        1.1267741689
H                -1.6930323322        3.1508427798        2.7260049626
H                -2.3266756875        4.2717796723        1.5194036292
H                -3.3662633706        3.0128856373        2.1881221646



