%chk=calculation/no_transfer_pubchem_sampling_2_b3lyp/156388997_rwf.chk
%rwf=calculation/no_transfer_pubchem_sampling_2_b3lyp/156388997_rwf.rwf
%nprocshared=14
%mem=3GB
#p b3lyp/6-31g(d) 6D 10F nosymm GFInput td=(50-50,nstate=2) SCF=XQC 

Gaussian input prepared by ASE

0 1
C                -3.2911844599       -2.5555014582       -1.7017778604
C                -1.9272466792       -3.0792357811       -1.2359203606
C                -1.1051588457       -2.0827315606       -0.4000645415
C                -0.7029403977       -0.8002775414       -1.1654119859
C                 0.0649855453       -1.1304873675       -2.3990620828
N                 0.6437712233       -1.3767564756       -3.3754111960
N                -0.0745495545        0.2184380815       -0.3180707283
C                 1.1087410005       -0.1052195460        0.5025458474
C                 0.6893979067       -0.7334158465        1.7786951701
N                 0.3748204259       -1.2186430408        2.7855327881
C                 2.2462885041       -0.9118060174       -0.1764263421
C                 3.5056151922       -1.0641885469        0.6951919023
C                 4.2116566899        0.2552741322        1.0327753150
C                -0.1452727240        1.5996581786       -0.8121082063
C                 1.0989953772        2.0403521162       -1.4960438272
N                 2.0981824443        2.3878873736       -1.9752948153
C                -0.5213800987        2.6206894266        0.2910854672
C                -1.8978568356        2.3561726974        0.9108639024
C                -2.2559745521        3.3794430179        1.9934909158
H                -3.8575647297       -3.3483971683       -2.2016357967
H                -3.1982144922       -1.7308386061       -2.4185760961
H                -3.8920040154       -2.2005357987       -0.8552373509
H                -2.0794794359       -3.9712692268       -0.6161874773
H                -1.3395865750       -3.4071690477       -2.1027422312
H                -0.2110389600       -2.5883117176       -0.0232323266
H                -1.6795933023       -1.7595112608        0.4750951676
H                -1.6350075919       -0.3443305149       -1.5193662527
H                 1.5390120513        0.8604940919        0.7876229838
H                 2.5016417734       -0.3930359705       -1.1058519904
H                 1.8802607857       -1.9052916196       -0.4542246358
H                 3.2547676450       -1.6009693857        1.6194152264
H                 4.2005935386       -1.7114330423        0.1463290598
H                 3.6150278885        0.8873158406        1.7017124181
H                 5.1618614196        0.0631801003        1.5424665243
H                 4.4260006503        0.8351938966        0.1273969201
H                -0.9415126477        1.6248191752       -1.5649037685
H                -0.4938464067        3.6212032361       -0.1595528904
H                 0.2500302265        2.6185430854        1.0718960308
H                -2.6609220570        2.3773590446        0.1192003604
H                -1.9140433245        1.3456582868        1.3345227441
H                -1.5302595614        3.3570447515        2.8151033163
H                -2.2731734965        4.3994474655        1.5910599803
H                -3.2438385455        3.1711835424        2.4180187232



