%chk=calculation/no_transfer_pubchem_sampling_2_b3lyp/160608112_rwf.chk
%rwf=calculation/no_transfer_pubchem_sampling_2_b3lyp/160608112_rwf.rwf
%nprocshared=14
%mem=3GB
#p b3lyp/6-31g(d) 6D 10F nosymm GFInput td=(50-50,nstate=2) SCF=XQC 

Gaussian input prepared by ASE

0 1
C                -5.0832923269        1.2418977982        0.0528187781
C                -3.8530395478        0.3751287488       -0.0735116164
C                -2.7820407185        0.5053586344        0.8200859630
C                -1.6526469853       -0.3051042464        0.7230970142
C                -1.5555957691       -1.2846689511       -0.2799554366
C                -0.4072236819       -2.2116056089       -0.4489396151
N                 0.8400567483       -2.0888640850       -0.2081855586
C                 1.4303286390       -0.8501193699        0.2866399273
C                 2.8653043690       -0.7345053285       -0.2489668200
C                 3.6704432774        0.4948271262        0.2251964807
C                 3.0675243633        1.8250484543       -0.2557485408
C                 3.8938561132        0.5070572853        1.7461988096
C                -2.6437906847       -1.4327729912       -1.1572213032
C                -3.7620824806       -0.6105302461       -1.0662686232
H                -5.5573293013        1.4094782198       -0.9201086176
H                -4.8434036259        2.2183306853        0.4866753002
H                -5.8338334125        0.7726732121        0.7031746696
H                -2.8339338785        1.2523904926        1.6091296009
H                -0.8579205262       -0.1913690927        1.4514653386
H                -0.6991697274       -3.1762484752       -0.8829868529
H                 0.8427641896        0.0379958397        0.0132783628
H                 1.4515625417       -0.8963416790        1.3853239175
H                 3.4010090180       -1.6509847577        0.0296077487
H                 2.8185979969       -0.7301825632       -1.3464696387
H                 4.6609843921        0.4024006112       -0.2446719061
H                 2.0979421499        2.0267695004        0.2157870623
H                 2.9155485715        1.8243776244       -1.3419329987
H                 3.7293224735        2.6646575203       -0.0112431123
H                 2.9564137072        0.6636116219        2.2941542480
H                 4.3294625420       -0.4376700647        2.0935219039
H                 4.5760798228        1.3159295438        2.0340426240
H                -2.6006328052       -2.1986756435       -1.9286001914
H                -4.5812694434       -0.7382908156       -1.7704479179



