%chk=./calculation/no_transfer_pubchem_sampling_2_b3lyp/17452558.chk
%nprocshared=7
%mem=6GB
#p b3lyp/6-31g(d) opt SCF=XQC 

Gaussian input prepared by ASE

0 1
C                 1.6082934322        2.1824168481        0.7133333556
C                 2.5927224452        1.4953231107        1.6033641712
C                 3.5344266286        2.2063682750        2.3346223248
C                 4.4018165593        1.5712654082        3.2062258404
C                 4.3373405775        0.1994274034        3.3765796649
C                 3.4148797711       -0.5348967765        2.6545579765
C                 2.5655994129        0.1075564440        1.7643683485
N                 1.6212211846       -0.6608638636        1.0493202819
C                 0.5032819779       -1.2573503760        1.5809702685
S                 0.1124838667       -1.2007108832        3.2743181444
C                -1.6849648921       -1.0374172346        3.0237583489
C                -1.9007173352        0.0826475520        2.0139232385
O                -1.1860470349        1.0681908586        2.0065653134
N                -2.9262707005       -0.0505369618        1.1479417025
C                -3.8410890819       -1.1812425185        1.0650871902
C                -3.2452101685       -2.3326546573        0.3195302938
C                -3.0290158916       -2.5287922631       -1.0121741591
C                -2.3667297400       -3.7735350658       -1.1254544362
C                -2.2317535341       -4.2398022336        0.1431220629
O                -2.7645182955       -3.3801068836        1.0244076927
C                -2.9888406468        0.8916461839        0.0688668676
C                -2.1412094025        0.8074219583       -0.9449155402
C                -2.1336766349        1.7749725035       -2.0862166851
C                -2.9367285138        3.0323685814       -1.7629766372
C                -4.2734380215        2.6501691700       -1.1366938063
C                -4.0316399868        1.9631484824        0.2043689361
N                -0.2450125770       -1.7651776241        0.6517084883
N                 0.3547614013       -1.5241235544       -0.5349349671
C                 1.4618960767       -0.8678507227       -0.2980577250
N                 2.2912824382       -0.3902718813       -1.2682255469
C                 3.7312346051       -0.3326126241       -1.0660147432
C                 4.4402826544       -1.1737773396       -2.1266633643
O                 4.1846434083       -0.7127492865       -3.4368117222
C                 2.9004460904       -0.1367392528       -3.5955159369
C                 1.8784062983       -0.7120507542       -2.6262682900
H                 1.6978920024        1.8370811611       -0.3159422340
H                 1.7561280658        3.2587463729        0.7389818035
H                 0.5949106015        1.9599908010        1.0513421986
H                 3.5758646206        3.2806514146        2.2278487871
H                 5.1214078770        2.1512035971        3.7645406349
H                 4.9980804834       -0.2986247351        4.0692781310
H                 3.3410079235       -1.6058690799        2.7771395418
H                -2.1065861916       -0.7710176038        3.9932026055
H                -2.0544365006       -2.0008058079        2.6871555482
H                -4.1337398593       -1.4984667784        2.0689812586
H                -4.7307873477       -0.8276470771        0.5365440378
H                -3.3023960749       -1.8671518799       -1.8079020465
H                -2.0343772293       -4.2460452359       -2.0262655636
H                -1.7958878856       -5.1360402207        0.5374141259
H                -1.4196219006        0.0037489076       -0.9792094391
H                -1.1011456031        2.0384835697       -2.3285792088
H                -2.5527208698        1.2780413886       -2.9681037073
H                -3.0944374424        3.6183555129       -2.6704112249
H                -2.3757324679        3.6451449937       -1.0554033540
H                -4.8948568763        3.5360341449       -0.9937764976
H                -4.8038759294        1.9690297964       -1.8058137311
H                -3.6809062700        2.6917474126        0.9420124474
H                -4.9603438057        1.5342563851        0.5905067806
H                 3.9925541859       -0.7049594455       -0.0746426391
H                 4.0685900021        0.7092042474       -1.1402125661
H                 5.5234408953       -1.1250982444       -1.9892043769
H                 4.1224892663       -2.2231763535       -2.0281347499
H                 2.6001350577       -0.3328212195       -4.6276348979
H                 2.9650335426        0.9520370391       -3.4505802740
H                 0.8944125685       -0.2691300910       -2.7946792007
H                 1.7817497909       -1.7965649945       -2.7663011415



