%chk=calculation/no_transfer_pubchem_sampling_2_b3lyp/17452558_rwf.chk
%rwf=calculation/no_transfer_pubchem_sampling_2_b3lyp/17452558_rwf.rwf
%nprocshared=14
%mem=3GB
#p b3lyp/6-31g(d) 6D 10F nosymm GFInput td=(50-50,nstate=2) SCF=XQC 

Gaussian input prepared by ASE

0 1
C                 1.9940992733        2.0656724725        0.2250981063
C                 2.8913770976        1.6210495729        1.3523147546
C                 3.6095864739        2.5452196340        2.1217599418
C                 4.4128768433        2.1455841784        3.1905957362
C                 4.5176200898        0.7945583357        3.5206701975
C                 3.8228184324       -0.1480653151        2.7646030960
C                 3.0283345778        0.2623306233        1.6914241322
N                 2.3162606913       -0.7342710222        0.9421737946
C                 1.0938988919       -1.2999482489        1.2748760314
S                 0.3030555770       -0.9891061978        2.8251662626
C                -1.4251162792       -1.1701294592        2.2687672976
C                -1.9217997737        0.0078486696        1.4090393820
O                -1.2285466687        0.9867976888        1.1683814690
N                -3.2037735583       -0.0993709274        0.9173413806
C                -4.1336741145       -1.2078336781        1.2038426689
C                -4.1682097024       -2.2819289910        0.1654640600
C                -5.0842817550       -2.6617965205       -0.7714362482
C                -4.5055237230       -3.7621844541       -1.4873462625
C                -3.2791815066       -3.9679751400       -0.9344800271
O                -3.0605625169       -3.0808567518        0.0763715661
C                -3.7016253853        0.9720967146        0.0840210939
C                -3.7233401229        0.8378308974       -1.2457297965
C                -4.2232189755        1.9153331665       -2.1756226272
C                -4.3505982238        3.2764107608       -1.4741596134
C                -5.0190325532        3.1232220531       -0.1020253670
C                -4.1956535282        2.2015687194        0.8116705359
N                 0.6458763160       -2.0540886341        0.3091084117
N                 1.5771413097       -2.0098750673       -0.7207088479
C                 2.5567174994       -1.2222765152       -0.3341841137
N                 3.6429889744       -0.8635055767       -1.1113240713
C                 4.9934653655       -0.8610072100       -0.5036450161
C                 6.0427733048       -1.1830786193       -1.5705994253
O                 5.8669293343       -0.3793319836       -2.7218794699
C                 4.5856378449       -0.5412381849       -3.3418895058
C                 3.5943957065       -1.3414008495       -2.4961505208
H                 2.3149435820        1.6345656426       -0.7301830656
H                 2.0117809482        3.1554894776        0.1289972434
H                 0.9587626855        1.7521479439        0.4028551062
H                 3.5242164966        3.6016008370        1.8799133024
H                 4.9517605641        2.8918457483        3.7681909993
H                 5.1342181973        0.4746564298        4.3555914979
H                 3.8908617478       -1.2074306801        2.9951633328
H                -2.0085713580       -1.2510002193        3.1926817327
H                -1.5181942453       -2.1086155955        1.7192997035
H                -3.8887644314       -1.6383026778        2.1792352923
H                -5.1383395363       -0.7824931526        1.2909091375
H                -6.0526814913       -2.2096104466       -0.9364946678
H                -4.9452363516       -4.3178522460       -2.3037693071
H                -2.4738008967       -4.6593470735       -1.1288275404
H                -3.3459057838       -0.0795961188       -1.6904135820
H                -3.5439165981        1.9932810036       -3.0350613403
H                -5.1954417257        1.6129818338       -2.5970034712
H                -4.9158137684        3.9741443017       -2.1038964545
H                -3.3491143051        3.7066984450       -1.3398295229
H                -5.1516115776        4.1012875368        0.3759229383
H                -6.0244426444        2.6995100816       -0.2372630110
H                -3.3230773222        2.7319938559        1.2172060732
H                -4.7938356911        1.8956099415        1.6820888624
H                 5.0634770541       -1.6000578978        0.3072609683
H                 5.2024768032        0.1255260189       -0.0779062819
H                 7.0394350252       -0.9525955732       -1.1828808947
H                 6.0258650751       -2.2550209852       -1.8227379178
H                 4.7118495330       -1.0367242639       -4.3159897877
H                 4.1934066080        0.4671135554       -3.5201811507
H                 2.5808957564       -1.1942380955       -2.8752119784
H                 3.7930834344       -2.4218237686       -2.5610072229



