%chk=./calculation/no_transfer_pubchem_sampling_2_b3lyp/18911915.chk
%nprocshared=7
%mem=6GB
#p b3lyp/6-31g(d) opt SCF=XQC 

Gaussian input prepared by ASE

0 1
C                -4.1938359785       -3.9047602374        1.8395864271
C                -4.3626161679       -2.4027400622        1.6738902805
O                -3.2324305905       -1.8367515219        1.0095643666
C                -3.3774433930       -1.5027731461       -0.2735491279
O                -4.4094845410       -1.5461943321       -0.8923768990
C                -2.1365153117       -0.8815774645       -0.8243636097
C                -1.4481947683       -1.3537799853       -1.9032190936
N                -1.4668360123       -2.6026770249       -2.5135253236
C                -1.9516855373       -3.7411404683       -1.9461061539
O                -2.7321572923       -3.7664478124       -1.0236159880
C                -1.3645054028       -5.0043045147       -2.5362336793
S                 0.4513980224       -5.0234780704       -2.2218391740
C                 0.5341201425       -3.9640668838       -0.7814745677
C                -0.2301173956       -4.2226689783        0.3458854190
C                -0.2324537157       -3.2971317934        1.3743544764
C                 0.5368956186       -2.1505197678        1.3087355312
C                 1.3527885687       -1.9286545378        0.2028987868
N                 2.1992508693       -0.8265645385        0.0950176147
C                 2.0813432830        0.3833848744        0.7159076752
O                 1.2041314096        0.6663301883        1.5020733887
C                 3.1652295113        1.3488215502        0.3381406518
C                 3.5538738218        1.5669239520       -0.9914978202
O                 2.9586050524        0.7849554763       -1.9418996956
C                 3.1919042852        1.0616104208       -3.3037956451
C                 4.4960537212        2.5445617396       -1.2898326583
C                 5.0559096162        3.2901837098       -0.2697662149
C                 4.7051724534        3.0776130246        1.0482411759
C                 3.7579516563        2.1061281441        1.3637353333
O                 3.3781064388        1.7998055530        2.6225776394
C                 3.9007013437        2.5422844643        3.6971557439
C                 1.3423464112       -2.8434559480       -0.8474250235
S                -0.2258185590       -0.2347588503       -2.4261878990
C                -0.6582835707        0.8852755238       -1.1717742438
C                -1.6650013608        0.4014156137       -0.3941217889
C                -2.1825461958        1.1025189995        0.8233895729
C                -2.9046486016        2.4396366505        0.5715772544
C                -1.9969259763        3.6728066060        0.6730922751
C                -1.5415027643        4.2790548201       -0.6573519140
C                -1.0267987810        3.2864532552       -1.6997914264
C                -0.0396545332        2.2384469440       -1.1460542539
H                -5.0902389004       -4.3277518015        2.2849729750
H                -4.0256888669       -4.3525980796        0.8646933569
H                -3.3412231375       -4.1225720585        2.4775606165
H                -5.2583471193       -2.1821776203        1.0839423659
H                -4.4249937709       -1.9018837912        2.6451294475
H                -0.8078924424       -2.7079565547       -3.2743205976
H                -1.8229571527       -5.8764945518       -2.0719413634
H                -1.4799704485       -5.0539308065       -3.6180469846
H                -0.8351154418       -5.1131697046        0.4068561893
H                -0.8491984827       -3.4716353629        2.2413005852
H                 0.5103555684       -1.4246190734        2.1031124371
H                 2.8527755170       -0.8706236408       -0.6741175439
H                 4.2313276098        0.8613487061       -3.5820406035
H                 2.5317004809        0.3889878692       -3.8492654637
H                 2.9389523955        2.0954455737       -3.5550068827
H                 4.8000478171        2.7280767656       -2.3068717174
H                 5.7861980040        4.0483686184       -0.5091264338
H                 5.1682888513        3.6691580821        1.8203152728
H                 3.6564639577        3.6055042463        3.6100019039
H                 4.9859890643        2.4214997397        3.7807238659
H                 3.4238522553        2.1364623668        4.5876880069
H                 1.9470695266       -2.6696231413       -1.7260493313
H                -2.8672202033        0.4241216126        1.3297230824
H                -1.3344865127        1.2660975910        1.4933868256
H                -3.6852916996        2.5322029013        1.3292995539
H                -3.4055655016        2.4128566482       -0.3965967739
H                -1.1235455898        3.4175204260        1.2752669781
H                -2.5266562646        4.4609327775        1.2142295798
H                -2.3754213548        4.8266806590       -1.1041731767
H                -0.7554004316        5.0068983462       -0.4390351715
H                -0.5480178396        3.8557022195       -2.4994566638
H                -1.8739521670        2.7644815672       -2.1485912650
H                 0.8658768646        2.2228184222       -1.7506977049
H                 0.2459626393        2.4861064766       -0.1239217775



