%chk=calculation/no_transfer_pubchem_sampling_2_b3lyp/18911915_rwf.chk
%rwf=calculation/no_transfer_pubchem_sampling_2_b3lyp/18911915_rwf.rwf
%nprocshared=14
%mem=3GB
#p b3lyp/6-31g(d) 6D 10F nosymm GFInput td=(50-50,nstate=2) SCF=XQC 

Gaussian input prepared by ASE

0 1
C                -6.2714802518       -3.7297902408        0.5818327004
C                -6.5369889474       -2.6562365863       -0.4625175495
O                -5.5856819058       -1.5703072718       -0.3238053499
C                -4.4376415830       -1.6787718964       -1.0295134374
O                -4.2099494130       -2.5769492640       -1.8152929169
C                -3.4770235177       -0.5791223919       -0.7185364821
C                -2.1333689044       -0.8647418929       -0.6173247621
N                -1.4855531049       -2.1013703235       -0.6935151133
C                -1.8554322115       -3.2232820748        0.0063476722
O                -2.7472158833       -3.2561954698        0.8377649442
C                -1.1117093025       -4.5108872804       -0.3639243359
S                 0.5349847649       -4.3890536469       -1.1693402099
C                 1.5780841590       -3.7823673626        0.1648245621
C                 1.6550456397       -4.4371824279        1.3996798230
C                 2.5205625508       -3.9416077542        2.3734289302
C                 3.3322918250       -2.8319170781        2.1392006822
C                 3.2695163164       -2.1888078056        0.8928087294
N                 4.0607555773       -1.0815585541        0.5450990054
C                 4.8665766424       -0.3096463368        1.3600128811
O                 5.0618890516       -0.5484311681        2.5419588044
C                 5.5297571275        0.8541594362        0.6569581512
C                 4.8045277576        1.7848474830       -0.1139390920
O                 3.4769921910        1.4998876352       -0.3003359338
C                 2.6586353041        2.4475180021       -0.9743982214
C                 5.4215614605        2.9209874355       -0.6510077269
C                 6.7817406599        3.1172623137       -0.4287407636
C                 7.5366896466        2.2062349775        0.3040216381
C                 6.9132121861        1.0737428307        0.8465036997
O                 7.5793344025        0.1182531182        1.5402694397
C                 8.9612174540        0.2989980372        1.8066665176
C                 2.3786493502       -2.6672808925       -0.0838452322
S                -1.2140412834        0.5643324134       -0.2277482809
C                -2.6461071012        1.5645260541       -0.2658209149
C                -3.7762134674        0.8246815045       -0.5181716216
C                -5.1652768747        1.4247693838       -0.6234591374
C                -5.4234447151        2.4488221867       -1.7665327043
C                -5.1736774021        3.9337671746       -1.4097336108
C                -3.8335593007        4.5646420802       -1.8351609763
C                -2.5497403909        3.7622423857       -1.5491690397
C                -2.4956610248        3.0585711776       -0.1602842041
H                -7.0030744989       -4.5396462277        0.4756385525
H                -5.2658091345       -4.1413914283        0.4631620060
H                -6.3544208597       -3.3171461703        1.5922205758
H                -6.4694085915       -3.0551978757       -1.4767604568
H                -7.5129511710       -2.1847409519       -0.3198044354
H                -0.7166981941       -2.2123858406       -1.3466488392
H                -1.0597089448       -5.1251669672        0.5366640487
H                -1.7360548963       -5.0478253376       -1.0879642111
H                 1.0571596554       -5.3215554629        1.5954918923
H                 2.5777508976       -4.4384278163        3.3382938189
H                 4.0032860132       -2.4556086378        2.8976040846
H                 3.8742634178       -0.6886519904       -0.3678059610
H                 2.9792900813        2.5904381452       -2.0141852446
H                 1.6508219541        2.0288050444       -0.9597135905
H                 2.6618455560        3.4142739998       -0.4564920556
H                 4.8588066006        3.6400266350       -1.2327858393
H                 7.2662556024        3.9968708395       -0.8438757598
H                 8.5963228418        2.3766929978        0.4464437118
H                 9.1428845984        1.2132535620        2.3857418857
H                 9.5517114171        0.3308369895        0.8814929838
H                 9.2611724353       -0.5679531228        2.3972645585
H                 2.3141047884       -2.1638530736       -1.0456666517
H                -5.8732523973        0.6033425714       -0.7319089054
H                -5.4217945032        1.9035182294        0.3322709467
H                -6.4813244844        2.3488755178       -2.0387189659
H                -4.8586010100        2.1613292391       -2.6626467073
H                -5.3084998563        4.0566979870       -0.3265521003
H                -5.9652361724        4.5439804094       -1.8638029332
H                -3.8614080657        4.7745629133       -2.9131553712
H                -3.7621687990        5.5448571186       -1.3432722929
H                -1.6952472519        4.4435841523       -1.6492056387
H                -2.4154896780        2.9995536158       -2.3243777183
H                -1.5481775330        3.2905421137        0.3387267889
H                -3.2786042989        3.4547719119        0.4980322601



