%chk=calculation/no_transfer_pubchem_sampling_2_b3lyp/19482018_rwf.chk
%rwf=calculation/no_transfer_pubchem_sampling_2_b3lyp/19482018_rwf.rwf
%nprocshared=14
%mem=3GB
#p b3lyp/6-31g(d) 6D 10F nosymm GFInput td=(50-50,nstate=2) SCF=XQC 

Gaussian input prepared by ASE

0 1
C                -1.8666962206       -2.1143201890       -1.5109204040
C                -1.5689813716       -0.7012716191       -1.1106939769
N                -0.3936599925       -0.1856294435       -1.4519890796
N                -0.3349267230        1.0850649775       -0.9657867569
C                 0.8258806297        1.9314403439       -1.1759789381
C                 2.1493107367        1.4738331007       -0.5285106347
O                 2.9911440912        2.3209825078       -0.2412216493
N                 2.3076067126        0.1393887095       -0.3674285682
C                 3.5319329764       -0.4789543220        0.1487054306
C                 4.7752956067       -0.2801918814       -0.7612271078
C                 5.9622827969       -0.2632085415        0.2135603760
C                 5.4110037596        0.5300758950        1.4117596871
C                 3.9640262448        0.0193992379        1.5677553314
C                -1.4805792349        1.4036039503       -0.2988721087
N                -1.7111027515        2.5737049304        0.3067595129
C                -2.8949215574        2.6364180003        0.9117559645
C                -3.8421098595        1.5987872501        0.9210731478
C                -3.5949639099        0.3806825424        0.2751607671
C                -4.6172216826       -0.6542874022        0.3249378738
C                -5.6518434295       -0.8860310885        1.1984049020
C                -6.3425592445       -2.0416888797        0.7260840888
C                -5.6875549016       -2.4369966874       -0.4016354051
O                -4.6394362404       -1.6090893689       -0.6588131385
C                -2.3353427026        0.2669774417       -0.3736503191
H                -0.9766674636       -2.5416445036       -1.9805361859
H                -2.1405772033       -2.7300131589       -0.6478901261
H                -2.6980771405       -2.1657846321       -2.2199760514
H                 0.9966324845        2.0456392681       -2.2532764913
H                 0.5849663406        2.9101542167       -0.7604673195
H                 1.5732906466       -0.4582626244       -0.7320538804
H                 3.2973245196       -1.5466281957        0.2061995896
H                 4.8484077182       -1.0526695675       -1.5348931761
H                 4.6970870904        0.6916948508       -1.2571862152
H                 6.8627528205        0.1831899237       -0.2227219739
H                 6.2212775191       -1.2864589807        0.5213904582
H                 6.0065641019        0.4053367824        2.3228524243
H                 5.3917742456        1.5965477168        1.1627932268
H                 3.9234408950       -0.8193424196        2.2732516127
H                 3.2900963662        0.7934823700        1.9398179606
H                -3.1250216493        3.5727579730        1.4166487657
H                -4.7943512899        1.7649225212        1.4130044699
H                -5.8767251741       -0.3139682105        2.0872577087
H                -7.2067653261       -2.5158634580        1.1695221937
H                -5.8320112339       -3.2417773362       -1.1061769850



