%chk=./calculation/no_transfer_pubchem_sampling_2_b3lyp/22581480.chk
%nprocshared=7
%mem=6GB
#p b3lyp/6-31g(d) opt SCF=XQC 

Gaussian input prepared by ASE

0 1
C                -2.6109059540       -4.8748586233       -1.7865230120
N                -2.7366355693       -3.5158452215       -1.2869502307
C                -1.7408423942       -2.6034810852       -1.6001271184
O                -0.7656868336       -2.9011955509       -2.2636834779
C                -1.9631706490       -1.2820377088       -1.0662182839
C                -1.0668052138       -0.2238641803       -1.2967922953
S                 0.3352192161       -0.5119069588       -2.2746248223
C                 1.0736557088        1.1657701143       -2.2872434698
C                 2.5337875623        1.1944086516       -1.8696041997
O                 3.3849512786        1.5509974619       -2.6591817698
N                 2.8078019848        0.8502124695       -0.5869059540
C                 1.8314903046        0.4050182200        0.4037359944
C                 2.5576592390        0.4456056195        1.7569339938
C                 3.9944948451        0.6173073645        1.3623809450
C                 5.1254853412        0.5816781932        2.1468140388
C                 6.3605167313        0.7920782716        1.5468581799
C                 6.4451877040        1.0379877123        0.1872916830
C                 5.3110621121        1.0790531635       -0.6115645087
C                 4.0850613418        0.8640897839       -0.0078448884
N                -1.2908833652        0.9767571761       -0.7761932137
C                -2.3910641747        1.1537955025       -0.0504024503
C                -2.6390786008        2.4866581776        0.5044662822
C                -2.2609148642        3.7018398361       -0.3109124060
C                -1.4761294505        3.3628791155        0.9028330698
N                -3.3031025205        0.2258074486        0.2153700396
C                -3.0898302534       -0.9869629542       -0.2898289027
N                -4.0015549991       -1.9646769727       -0.0397088617
C                -5.1669108823       -1.6455630693        0.7608399860
C                -3.8625927652       -3.2544274260       -0.5294895697
O                -4.6830390337       -4.1125391270       -0.3041543857
H                -1.6869548491       -4.9289639715       -2.3574828628
H                -2.5857632340       -5.5742408250       -0.9514756738
H                -3.4651499665       -5.1159928008       -2.4182059303
H                 0.4464253674        1.7817977471       -1.6435549633
H                 1.0252025081        1.5236519374       -3.3152656178
H                 0.9476041482        1.0451564796        0.3929732936
H                 1.5190869522       -0.6178586626        0.1667825482
H                 2.2265204380        1.2898270778        2.3671582028
H                 2.3950301903       -0.4659813979        2.3318741008
H                 5.0513436822        0.3920487757        3.2074061849
H                 7.2577513356        0.7638422041        2.1464726867
H                 7.4112115126        1.2003682476       -0.2664774281
H                 5.3784688507        1.2730385234       -1.6680810085
H                -3.5412979037        2.5297540541        1.0982947467
H                -2.9319889602        4.5459086161       -0.2832190681
H                -1.8107801433        3.5195804563       -1.2741301432
H                -0.4857748716        2.9569014392        0.7698491718
H                -1.5929258973        3.9674015800        1.7887808559
H                -5.7699920411       -2.5466132391        0.8451736138
H                -5.7342846189       -0.8503373991        0.2793238133
H                -4.8509573456       -1.3038732466        1.7455100855



