%chk=calculation/no_transfer_pubchem_sampling_2_b3lyp/23629002_rwf.chk
%rwf=calculation/no_transfer_pubchem_sampling_2_b3lyp/23629002_rwf.rwf
%nprocshared=14
%mem=3GB
#p b3lyp/6-31g(d) 6D 10F nosymm GFInput td=(50-50,nstate=2) SCF=XQC 

Gaussian input prepared by ASE

0 1
N                 1.7099571313       -6.5819703497        0.5878495319
C                 0.6512102180       -5.7076254676        0.5969884224
N                -0.5694972032       -6.3153439413        0.7576975426
C                -1.6470996122       -5.5521491738        0.7436345320
N                -2.8603726406       -6.1504425057        0.9444841552
C                -1.5200354643       -4.1407729838        0.5659879729
C                -2.3349164147       -3.0166228384        0.5072462402
N                -1.5042448559       -1.9680211739        0.3159703106
C                -1.9007197245       -0.5760528502        0.1813381698
O                -1.8821334123       -0.1651032801       -1.1744172450
C                -0.9532274194        0.9135518469       -1.3854185564
C                -0.3099274266        0.7716461228       -2.7512476956
O                 0.4792296135       -0.4184777859       -2.7696306265
C                 1.2599938624       -0.5882704619       -3.8666380838
O                 1.2649134206        0.1964676543       -4.7957382265
C                 2.0728987847       -1.8319648893       -3.7957216659
C                 2.0333488942       -2.6878344374       -2.6861781504
C                 2.8088935042       -3.8464840417       -2.6777358732
C                 3.6244598410       -4.1517317449       -3.7695956771
C                 3.6680361544       -3.2966527254       -4.8754193829
C                 2.8940725829       -2.1396884209       -4.8899155071
C                -0.0173104417        0.8568576619       -0.1638370909
O                 0.5435736421        2.1234627534        0.1869638698
C                 1.7649739315        2.4319734474       -0.3329082258
O                 2.3414396618        1.7332861710       -1.1403167558
C                 2.2859093124        3.7197782576        0.2008005723
C                 3.4978557507        4.1964228896       -0.3182662175
C                 4.0327991842        5.3941098837        0.1484684718
C                 3.3625294000        6.1198801163        1.1369303681
C                 2.1561375305        5.6459148725        1.6584326201
C                 1.6150238830        4.4487704084        1.1933751921
C                -0.9550789700        0.3749162297        0.9456168943
O                -1.6936301476        1.5175569146        1.4145338373
C                -2.4096700253        1.3448786768        2.5575114240
O                -2.5016046703        0.2713013923        3.1205473213
C                -3.0530484820        2.6049320307        3.0162554035
C                -3.8252558033        2.5553256015        4.1853019007
C                -4.4474214112        3.7072766088        4.6588619237
C                -4.3030164094        4.9132225183        3.9673914949
C                -3.5344544751        4.9660046421        2.8018066702
C                -2.9084176205        3.8162063847        2.3239774681
N                -0.1851523340       -2.3067619924        0.2457944131
C                -0.1865858779       -3.6393483076        0.4018845811
N                 0.9193940529       -4.4228829946        0.4153877906
H                 2.6178151582       -6.1717496713        0.7547887805
H                 1.5373614161       -7.4895516641        0.9950550925
H                -3.6927021696       -5.6810588796        0.6191833249
H                -2.8622716880       -7.1596147078        0.8720125239
H                -3.4028918988       -2.8751595461        0.5967466432
H                -2.9206411042       -0.5139291769        0.5681965230
H                -1.4969545649        1.8701594156       -1.3696358923
H                -1.0856478987        0.7117950413       -3.5223954516
H                 0.3185566203        1.6403256723       -2.9653106385
H                 1.4032115288       -2.4506483593       -1.8365850654
H                 2.7625531830       -4.5027883100       -1.8139929622
H                 4.2274650062       -5.0565443473       -3.7612785322
H                 4.3038901336       -3.5340875577       -5.7242810249
H                 2.9094906827       -1.4612343945       -5.7367701250
H                 0.7685459823        0.1182743248       -0.3257939227
H                 4.0014057740        3.6143564639       -1.0830532340
H                 4.9713974996        5.7619965134       -0.2563153774
H                 3.7811869022        7.0540454015        1.5019894066
H                 1.6379061895        6.2088476385        2.4298105726
H                 0.6816115819        4.0719381767        1.5963811790
H                -0.4552808612       -0.1149075604        1.7798840630
H                -3.9224908015        1.6082066336        4.7057001295
H                -5.0444833333        3.6667760852        5.5654987756
H                -4.7894160652        5.8120123171        4.3370163434
H                -3.4231848507        5.9038601299        2.2648778783
H                -2.3102589365        3.8491386428        1.4202168760



