%chk=./calculation/no_transfer_pubchem_sampling_2_b3lyp/28125416.chk
%nprocshared=7
%mem=6GB
#p b3lyp/6-31g(d) opt SCF=XQC 

Gaussian input prepared by ASE

0 1
O                 6.2231193239        1.1730076766        0.6038598927
C                 5.2233343165        1.3130987611        1.2590051559
O                 4.8236685532        1.8013138690        2.2854119606
C                 3.9685835393        0.5916769024        0.4928924065
C                 3.2137531124        1.3483108478       -0.3739317217
C                 2.1264793161        0.7408961803       -0.9925931355
C                 1.8480719704       -0.5824466755       -0.7215468650
S                 0.3854642087       -1.3413324483       -1.4440595120
O                -0.0077946132       -0.5897716767       -2.5941705810
O                 0.5854849687       -2.7520711164       -1.5323250660
N                -0.7831536356       -1.1025626072       -0.2899263720
C                -1.3016375705        0.2265423962       -0.0823264348
C                -2.7800830814        0.1890876258        0.2085072914
C                -3.3423311947        0.9342499344        1.2363685630
C                -4.7128392014        0.8534132151        1.4395960329
N                -5.4998147872        0.0955476369        0.7038130066
C                -4.9735025349       -0.6172202828       -0.2743542225
C                -3.6191573497       -0.6054084006       -0.5656748302
C                 2.6255482907       -1.3296247497        0.1389044591
C                 3.7161123047       -0.7343959610        0.7625403164
H                 3.4522637556        2.3816183094       -0.5706723094
H                 1.5100040375        1.2828484591       -1.6921638556
H                -0.6938992267       -1.6864898544        0.5242110359
H                -1.1411319622        0.7457566558       -1.0322852776
H                -0.7674605175        0.7641187499        0.7130076513
H                -2.7327225936        1.5657462416        1.8643466148
H                -5.1969413757        1.4158107665        2.2263134351
H                -5.6669979682       -1.2185375713       -0.8458295928
H                -3.2103953537       -1.1957872921       -1.3698982385
H                 2.3870833420       -2.3688084243        0.3029126346
H                 4.3408919264       -1.2985861676        1.4368055577



