%chk=calculation/no_transfer_pubchem_sampling_2_b3lyp/29944436_rwf.chk
%rwf=calculation/no_transfer_pubchem_sampling_2_b3lyp/29944436_rwf.rwf
%nprocshared=14
%mem=3GB
#p b3lyp/6-31g(d) 6D 10F nosymm GFInput td=(50-50,nstate=2) SCF=XQC 

Gaussian input prepared by ASE

0 1
C                -3.2177338985       -0.7557120686       -0.3825082131
C                -2.6264756638        0.4020347034        0.4326240596
C                -3.4773677215        1.6746335573        0.3102433385
C                -1.1890877792        0.7080811117        0.0153635326
O                -0.3871393543       -0.4542436022        0.2679346472
C                 0.9308800229       -0.4294870128       -0.0382134873
C                 1.6400869596       -1.6084562343        0.2382161379
C                 3.0074337503       -1.6873653653       -0.0396180173
C                 3.7195324654       -2.9004487254        0.2484449822
N                 4.2970154934       -3.8822929116        0.4812974515
C                 3.6922272033       -0.5953327910       -0.5968035249
C                 2.9766448187        0.5737201534       -0.8676696874
C                 3.6513339909        1.7058006919       -1.4370051457
N                 4.1907742883        2.6269516013       -1.8981099983
C                 1.5999990863        0.6668309864       -0.5927971688
H                -3.2793003117       -0.4932274661       -1.4468103441
H                -2.6072876881       -1.6587103237       -0.2907734867
H                -4.2308534148       -0.9921679005       -0.0391093557
H                -2.5951170340        0.1044770190        1.4899871432
H                -3.5220144096        2.0241384619       -0.7291879923
H                -4.5045891146        1.4817035367        0.6368766125
H                -3.0794249670        2.4913758095        0.9240514405
H                -0.7897161413        1.5560657494        0.5889932445
H                -1.1428621669        0.9610051165       -1.0542348786
H                 1.1099825017       -2.4506691634        0.6684557895
H                 4.7521005247       -0.6585744812       -0.8115012169
H                 1.0809585597        1.5898695475       -0.8162348629



