%chk=./calculation/no_transfer_pubchem_sampling_2_b3lyp/29944436.chk
%nprocshared=7
%mem=6GB
#p b3lyp/6-31g(d) opt SCF=XQC 

Gaussian input prepared by ASE

0 1
C                -3.2024304463       -0.7188998876       -0.4363544588
C                -2.6163739934        0.3883896758        0.4349160791
C                -3.4666194579        1.6527968956        0.3591756007
C                -1.1809228539        0.6986213507        0.0048090464
O                -0.3848078312       -0.4414844293        0.2759598574
C                 0.9258648233       -0.4207654304       -0.0328461741
C                 1.6384807232       -1.5874441941        0.2619014982
C                 2.9965607484       -1.6717495009       -0.0160717209
C                 3.7012466228       -2.8622065761        0.2898242568
N                 4.2757548132       -3.8222576322        0.5349901856
C                 3.6760614072       -0.5992533102       -0.5929299173
C                 2.9615610366        0.5564981406       -0.8825799953
C                 3.6227385923        1.6637068006       -1.4682741146
N                 4.1499812163        2.5636247766       -1.9421302400
C                 1.5959306301        0.6553382607       -0.6083336188
H                -3.2778550861       -0.3886506440       -1.4705194576
H                -2.5698983566       -1.6016493841       -0.3976555545
H                -4.1958182927       -0.9884901818       -0.0875160436
H                -2.5798894672        0.0386769348        1.4714515295
H                -3.4943708995        2.0318504934       -0.6602833149
H                -4.4846239700        1.4370266825        0.6718638516
H                -3.0668312704        2.4306708742        1.0056413203
H                -0.7991134461        1.5627506470        0.5654397957
H                -1.1545636312        0.9324046060       -1.0681145555
H                 1.1139363259       -2.4176173995        0.7085337754
H                 4.7312790492       -0.6656910545       -0.8087025757
H                 1.0847230139        1.5738034860       -0.8502840553



