%chk=calculation/no_transfer_pubchem_sampling_2_b3lyp/31946794_rwf.chk
%rwf=calculation/no_transfer_pubchem_sampling_2_b3lyp/31946794_rwf.rwf
%nprocshared=14
%mem=3GB
#p b3lyp/6-31g(d) 6D 10F nosymm GFInput td=(50-50,nstate=2) SCF=XQC 

Gaussian input prepared by ASE

0 1
O                 0.1131450121        3.0955373856       -0.6128906452
C                 0.4163353494        2.3182338214       -1.5139366795
C                 1.7885478067        2.3612721822       -2.1870115278
C                 2.9274294606        2.5397830052       -1.1618099422
C                 3.1528592962        1.3228162570       -0.2875125712
C                 2.4397798806        1.1474547560        0.9091614223
C                 2.6407054291        0.0175039618        1.6991445885
C                 3.5510383727       -0.9642339341        1.3084637288
C                 4.2552584617       -0.8108507575        0.1035087163
C                 4.0564544388        0.3283643078       -0.6762875717
O                 5.1596570111       -1.7520207859       -0.3350770068
C                 5.0523560034       -3.0077642292        0.3334279071
C                 4.9178323995       -2.7959823913        1.8333715772
O                 3.7297950057       -2.0614349750        2.1211543155
N                -0.4563887941        1.3941869088       -2.0152276702
C                -1.7809631759        1.1855939217       -1.4454748995
C                -1.8020956625        0.1084151894       -0.3388468841
C                -3.1906514675       -0.1439558367        0.2071587638
C                -3.5969444815        0.3937746434        1.3661004914
C                -4.9613096427        0.1852113553        1.9763630219
C                -5.7230322027       -0.9750477252        1.3180723971
C                -5.5794011154       -0.9203417253       -0.2074932475
C                -4.1042580862       -1.0292015794       -0.6206104838
H                 1.9620923794        1.4675529143       -2.7995101195
H                 1.7822508075        3.2228728811       -2.8684660118
H                 3.8485906134        2.7784082059       -1.7063657054
H                 2.6797614324        3.4070842805       -0.5417399563
H                 1.7270195240        1.9050169565        1.2200917927
H                 2.1075917584       -0.1188703653        2.6354177964
H                 4.6292683832        0.4198790909       -1.5958533383
H                 4.1796318402       -3.5592334635       -0.0443069090
H                 5.9601570565       -3.5661399661        0.0889377250
H                 5.7950358852       -2.2536845128        2.2137948622
H                 4.8291285187       -3.7480545420        2.3636844612
H                -0.1016460485        0.7062970275       -2.6646430218
H                -2.1010316509        2.1424056072       -1.0281001772
H                -2.4678280588        0.9232153411       -2.2584514747
H                -1.3858718326       -0.8250533902       -0.7474090210
H                -1.1277091766        0.4353518559        0.4598271287
H                -2.9062205324        1.0292158012        1.9212681495
H                -4.8588588012        0.0066507081        3.0558545719
H                -5.5457133885        1.1155651947        1.8895547369
H                -5.3168254412       -1.9289919818        1.6826405109
H                -6.7800626359       -0.9495303495        1.6098767912
H                -5.9888805832        0.0315031843       -0.5739880890
H                -6.1631038467       -1.7187740104       -0.6821300750
H                -3.9975611321       -0.7858666912       -1.6875353031
H                -3.7653663686       -2.0741315328       -0.5280131245



