%chk=calculation/no_transfer_pubchem_sampling_2_b3lyp/33420335_rwf.chk
%rwf=calculation/no_transfer_pubchem_sampling_2_b3lyp/33420335_rwf.rwf
%nprocshared=14
%mem=3GB
#p b3lyp/6-31g(d) 6D 10F nosymm GFInput td=(50-50,nstate=2) SCF=XQC 

Gaussian input prepared by ASE

0 1
C                 4.8902428748       -0.1357511573       -3.4465863713
O                 5.5516052093        0.1494201662       -2.2239940077
C                 4.8480821767       -0.0160809789       -1.0695782398
C                 3.5298785466       -0.4556713943       -0.9881718164
C                 2.9066707209       -0.5726448857        0.2672499549
C                 1.5020133266       -1.0256739289        0.4032826333
O                 0.8868830603       -1.0971799015        1.4483014565
O                 0.9563512443       -1.3939692686       -0.7937362828
C                -0.4108998548       -1.7677480782       -0.7399173602
C                -1.3215335725       -0.5313652462       -0.6401972897
O                -0.8971170999        0.6001451775       -0.8015396792
N                -2.6284436666       -0.8815248063       -0.3903653886
C                -3.7505711648       -0.0593311219       -0.2771246157
C                -3.6299768751        1.3441678982       -0.4049436433
C                -4.7811224219        2.0869731065       -0.2767973677
C                -6.0301858091        1.5136365648       -0.0316262141
C                -6.1749248176        0.1590949616        0.0963186788
C                -5.0219222654       -0.6680724988       -0.0248387650
C                -5.1804659702       -2.1302822570        0.1165728349
C                -6.5623411906       -2.7088575166        0.3847347649
O                -4.2329514081       -2.9227007784        0.0268205704
O                -6.9896430415        2.4987513834        0.0288249578
C                -6.2836320140        3.7374138551       -0.0828887696
O                -4.9078080873        3.4412893672       -0.3714237878
C                 3.6022494781       -0.2693102362        1.4371062947
C                 4.9252636059        0.1595326837        1.3570084167
C                 5.5532832966        0.3046576852        0.1120244946
O                 6.8409886309        0.7478764783       -0.0136745833
C                 7.3587615182        1.3599299906        1.1684483290
C                 7.0046394355        0.5243684434        2.3873004393
O                 5.5874176651        0.4427942967        2.5276905254
H                 4.0112396116        0.5064451941       -3.5888420296
H                 5.6195765638        0.0680427705       -4.2326283502
H                 4.5800660443       -1.1876316677       -3.5015794633
H                 2.9673497029       -0.6948370170       -1.8795486553
H                -0.5944662453       -2.4426740607        0.1017219966
H                -0.6103039866       -2.2950943626       -1.6779046344
H                -2.8561977579       -1.8717028914       -0.2563357612
H                -2.6656383624        1.7933054486       -0.5906348932
H                -7.1512074397       -0.2678515376        0.2846937831
H                -7.2652808108       -2.4606628402       -0.4186201213
H                -6.9818491314       -2.3270370881        1.3224552397
H                -6.4647090710       -3.7933500598        0.4525019342
H                -6.7040664045        4.3273982636       -0.9031364162
H                -6.3418148613        4.2853860981        0.8660780101
H                 3.1231971284       -0.3696394267        2.4038620607
H                 6.9437336914        2.3715947158        1.2731392663
H                 8.4405329908        1.4284013804        1.0277049702
H                 7.3797234929        0.9802752087        3.3073069946
H                 7.4293193141       -0.4842541316        2.2869449001



