%chk=./calculation/no_transfer_pubchem_sampling_2_b3lyp/35094165.chk
%nprocshared=7
%mem=6GB
#p b3lyp/6-31g(d) opt SCF=XQC 

Gaussian input prepared by ASE

0 1
C                -8.8809892969        0.1222387097        1.8882874266
C                -7.6975180199       -0.5502112681        1.2062539921
C                -6.4780305860        0.3651419880        1.1719202709
O                -5.4349503527       -0.3350040971        0.5262041645
C                -4.2350140621        0.2720964027        0.3706844245
C                -3.9176208601        1.5530634321        0.7954537805
C                -2.6533196751        2.0743215135        0.5821591532
C                -1.6682431893        1.3325206095       -0.0619765114
C                -0.3643053627        1.9217511650       -0.2634433313
C                 0.7061225690        1.3812362617       -0.8615456724
C                 1.9575813612        2.1474415094       -0.9715487631
O                 2.1014377222        3.2828919215       -0.5535594299
N                 2.9584152075        1.4885435954       -1.6236789956
C                 4.2829009216        2.0402086370       -1.7324574777
C                 5.2495192635        1.3913165447       -0.7389944105
O                 5.3784085639        0.0293722232       -1.1057928232
C                 6.1985506550       -0.7743023717       -0.3822936191
C                 6.9381438725       -0.3736702828        0.7265982135
C                 7.7446114541       -1.2856840753        1.3875055089
C                 7.8336063442       -2.5996928862        0.9686279464
C                 7.0899951650       -2.9791480680       -0.1353109303
F                 7.1582366757       -4.2568953768       -0.5645489185
C                 6.2784517203       -2.0984512023       -0.8160134952
C                -1.9883947978        0.0360110555       -0.4917846391
C                -3.2427938816       -0.4972372040       -0.2866281648
O                -3.6384644907       -1.7433644903       -0.6697255133
C                -2.7113426766       -2.5644296431       -1.3330677299
H                -9.7374574773       -0.5463792999        1.9017312949
H                -9.1626067803        1.0307160702        1.3604148606
H                -8.6339592221        0.3847833386        2.9146115580
H                -7.4282642486       -1.4660500540        1.7339624732
H                -7.9562223874       -0.8208661958        0.1817810439
H                -6.7147975675        1.2877316853        0.6228771463
H                -6.1800175719        0.6342589656        2.1953687426
H                -4.6555953389        2.1579883391        1.2976278517
H                -2.4301303319        3.0744141015        0.9216719088
H                -0.2400708032        2.9289546125        0.1170205060
H                 0.7016327335        0.3859568523       -1.2806168827
H                 2.8602376709        0.5097013872       -1.8393957990
H                 4.6585197862        1.8924042411       -2.7488137124
H                 4.2017535190        3.1075002263       -1.5146682073
H                 4.8450001681        1.4777312054        0.2775383403
H                 6.2230420598        1.8954069527       -0.7862255776
H                 6.8932300323        0.6424520125        1.0832900663
H                 8.3126237186       -0.9604209700        2.2455882357
H                 8.4574837438       -3.3177306096        1.4746045593
H                 5.7117528841       -2.4190578094       -1.6744889320
H                -1.2330590295       -0.5472183239       -0.9909995073
H                -2.3783422063       -2.1177368161       -2.2762008421
H                -3.2396707437       -3.4930213360       -1.5430708824
H                -1.8400738516       -2.7796091786       -0.7049337006



