%chk=calculation/no_transfer_pubchem_sampling_2_b3lyp/40149327_rwf.chk
%rwf=calculation/no_transfer_pubchem_sampling_2_b3lyp/40149327_rwf.rwf
%nprocshared=14
%mem=3GB
#p b3lyp/6-31g(d) 6D 10F nosymm GFInput td=(50-50,nstate=2) SCF=XQC 

Gaussian input prepared by ASE

0 1
O                -0.4488595973       -2.1974738231       -1.8381674096
C                -1.1116748151       -1.2877433874       -1.4035848563
C                -2.5725006210       -0.9817756358       -1.7244560375
C                -3.0035916020        0.1038758410       -0.7323461485
C                -3.7059894262       -0.4384810450        0.5157774228
S                -3.4453764898        0.8702334056        1.7551662049
O                -4.2589480448        2.0299972382        1.3530435449
O                -3.4937188643        0.3530683708        3.1276228497
C                -1.7194191755        1.1784115016        1.2151137190
C                -1.6553900662        0.7761071803       -0.2744294833
N                -0.6599033620       -0.2718059271       -0.5359700196
C                 0.6779161042       -0.1289867655       -0.1739191188
N                 1.4342864183       -1.0966468935        0.2152224040
C                 2.7284626580       -0.6545854917        0.4408348244
C                 3.7864416398       -1.4674991025        0.8701432086
C                 5.0319647057       -0.8913455670        1.0905766178
C                 5.2363246173        0.4844323425        0.8924599763
C                 4.1982908450        1.3111354579        0.4675159550
C                 2.9508522090        0.7294383784        0.2377644502
S                 1.4605766820        1.4841213313       -0.3038977245
H                -3.1673880969       -1.8976920622       -1.6740990711
H                -2.6169204149       -0.6250305480       -2.7605522539
H                -3.6437064934        0.8592677296       -1.1924733880
H                -3.2465201407       -1.3546838770        0.9007020204
H                -4.7804933801       -0.5865185722        0.3884632793
H                -1.5079333970        2.2336791941        1.3950531974
H                -1.0666564533        0.5616130396        1.8366508059
H                -1.4500136811        1.6578426307       -0.8939159176
H                 3.6118312190       -2.5279686663        1.0198968168
H                 5.8593070199       -1.5122166974        1.4217342717
H                 6.2179198837        0.9136215301        1.0717563508
H                 4.3608311199        2.3736078896        0.3150095086



