%chk=./calculation/no_transfer_pubchem_sampling_2_b3lyp/41057917.chk
%nprocshared=7
%mem=6GB
#p b3lyp/6-31g(d) opt SCF=XQC 

Gaussian input prepared by ASE

0 1
C                 8.0808893170        2.1823616519       -1.1837687289
O                 6.8282232826        1.5854042414       -1.4135808819
C                 5.9952822256        1.3898823179       -0.3578407491
C                 6.2942557244        1.7109361071        0.9618293917
C                 5.3583039705        1.4525981839        1.9489755909
C                 4.1373462932        0.8836231567        1.6499217559
C                 3.8343979909        0.5571086064        0.3267641043
N                 2.5961205369       -0.0333496001        0.0247232350
C                 1.8803800815       -0.8150483178        1.0410981196
C                 1.0414034965       -1.6754561330        0.1262534856
C                 1.8142243363       -2.7566297137       -0.6063465824
C                 0.8993260046       -3.4586972710       -1.2580033188
C                -0.4001806074       -2.7613278853       -0.9443071169
O                -0.1963884586       -2.3103263004        0.3986941016
C                -0.3208592537       -1.4432778872       -1.8207372316
C                -1.6985390734       -0.8076873551       -1.9996773373
O                -2.1327974172       -0.5107749176       -3.0903855188
N                -2.3437834740       -0.6466990967       -0.8192946273
C                -3.6124530778       -0.1073022379       -0.5796920541
C                -4.4466314046        0.3844349385       -1.5734003321
C                -5.6863597244        0.8995989401       -1.2544200371
C                -6.1182171682        0.9336224809        0.0680415265
O                -7.3584605282        1.4583752938        0.2810987326
C                -7.8528589750        1.5219206178        1.5950294139
C                -5.2887270933        0.4465971690        1.0755156027
C                -4.0421893052       -0.0692528022        0.7576488458
O                -3.1508992823       -0.5640554386        1.6775648043
C                -3.5346387291       -0.6243768752        3.0278060497
C                 0.6054027694       -0.6221234124       -0.9261382542
C                 1.9481220907        0.0319261533       -1.1936328145
O                 2.3573298274        0.5379443464       -2.2040072998
C                 4.7664050165        0.8079510227       -0.6678924548
H                 8.7021867798        1.5731431470       -0.5188054358
H                 7.9769868767        3.1881531202       -0.7640363227
H                 8.5584142403        2.2486230201       -2.1600033484
H                 7.2370289766        2.1583780284        1.2317723361
H                 5.5887547645        1.7062408030        2.9731509505
H                 3.4226538720        0.7099834446        2.4379139309
H                 1.2570002274       -0.1827130936        1.6839342223
H                 2.5892797672       -1.3771303122        1.6517299561
H                 2.8810327002       -2.8532176606       -0.5846177500
H                 1.0035728725       -4.2836624705       -1.9327568927
H                -1.3220336330       -3.3277821730       -1.0321574359
H                 0.0932139381       -1.6484412065       -2.8081931267
H                -1.8992668784       -1.0097156470        0.0185032236
H                -4.1122260152        0.3561996913       -2.5964962689
H                -6.3397001052        1.2822524789       -2.0206373690
H                -7.9438322826        0.5259397877        2.0417630512
H                -8.8425046865        1.9690811298        1.5156689790
H                -7.2245710137        2.1520860323        2.2337277607
H                -5.6106922036        0.4713090461        2.1029334815
H                -2.6971975590       -1.0865323689        3.5485741010
H                -4.4286484331       -1.2407625740        3.1652895991
H                -3.7116995112        0.3737797572        3.4419803848
H                 0.0116581022        0.1419854647       -0.4061380452
H                 4.5571608126        0.5749015713       -1.6971444023



