%chk=./calculation/no_transfer_pubchem_sampling_2_b3lyp/42827716.chk
%nprocshared=7
%mem=6GB
#p b3lyp/6-31g(d) opt SCF=XQC 

Gaussian input prepared by ASE

0 1
C                -6.3579439455       -0.7087156857        1.5572076173
O                -4.9582679517       -0.6673454489        1.6871045987
C                -4.4593675370        0.4555927142        2.3657919987
C                -4.5911070839        1.7778829844        1.5959811267
O                -3.9300723314        1.7159208702        0.3437065460
C                -2.5919952961        1.8852145372        0.3704713415
O                -1.9977043775        2.1727203161        1.3949398837
C                -1.9386328308        1.7473700876       -0.9174705922
C                -2.5459899970        1.6056588971       -2.1307205187
C                -4.0113560022        1.4252601428       -2.3422777114
N                -1.8401618209        1.6666226060       -3.2982812100
C                -0.5795781475        1.9346871604       -3.2373189061
S                 0.3892831445        2.2146887608       -4.6525297790
C                 1.7854846890        2.4777763315       -3.6467991060
C                 1.4923699224        2.3638783409       -2.3378633783
C                 2.4889102635        2.3963184312       -1.2283309891
C                 3.1467728831        1.0077677144       -1.1216592901
O                 3.4367833148        0.3723200193       -2.1067260574
N                 3.3903051502        0.6268016773        0.1581000320
C                 3.9424696057       -0.5770843396        0.6149821195
C                 4.4135040967       -1.5656492013       -0.2434251558
C                 4.9335930818       -2.7383231801        0.2727149377
C                 4.9762693022       -2.9156286829        1.6426806862
F                 5.4740237069       -4.0666131492        2.1425321982
C                 4.5236783124       -1.9421485405        2.5144378459
C                 4.0116166836       -0.7713879280        1.9935259529
N                 0.1656518780        2.0773283203       -2.1109387546
C                -0.4184384554        1.7944206670       -0.8103362151
C                 0.1001698112        0.4753433317       -0.2679858101
C                 0.3489457234        0.3224423962        1.0924254814
C                 0.7981332322       -0.8799114046        1.5916347494
C                 1.0349765495       -1.9590980329        0.7378660711
O                 1.5133204655       -3.0859033370        1.3289053244
C                 1.7466821615       -4.2196585958        0.5277335793
C                 0.7788907163       -1.8127036763       -0.6201210492
C                 0.3070092881       -0.6067943017       -1.1088932469
H                -6.5975076378       -1.7001759317        1.1772341230
H                -6.7300050332        0.0418038628        0.8515415919
H                -6.8494435945       -0.5618551350        2.5271482220
H                -3.3986477883        0.2471186050        2.5246414388
H                -4.9570112228        0.5740349011        3.3411580262
H                -4.1580990585        2.5783496320        2.2058631020
H                -5.6335699084        2.0049785945        1.3659944306
H                -4.1911013765        1.2924747692       -3.4053430075
H                -4.5590155870        2.2945848066       -1.9853438198
H                -4.3686326639        0.5598641369       -1.7898070639
H                 2.7390963156        2.6728629511       -4.0884918194
H                 3.2814331149        3.1043877866       -1.4809313218
H                 2.0288368984        2.6937864763       -0.2880327119
H                 3.0575246020        1.2290395206        0.8982863516
H                 4.3635109719       -1.4161026869       -1.3084521176
H                 5.3029453195       -3.5139696205       -0.3796852073
H                 4.5706310252       -2.1084349715        3.5784744504
H                 3.6513903716       -0.0026405593        2.6613725457
H                -0.1547258192        2.5990845719       -0.1079367845
H                 0.1557849619        1.1470873478        1.7617478031
H                 0.9799686187       -1.0144963569        2.6460618111
H                 2.1466352015       -4.9767510505        1.2001846226
H                 2.4792029312       -4.0105445670       -0.2576232944
H                 0.8198627746       -4.5876858983        0.0763329052
H                 0.9388420604       -2.6260275003       -1.3090343608
H                 0.1038673169       -0.5198204867       -2.1664242361



