%chk=calculation/no_transfer_pubchem_sampling_2_b3lyp/42844941_rwf.chk
%rwf=calculation/no_transfer_pubchem_sampling_2_b3lyp/42844941_rwf.rwf
%nprocshared=14
%mem=3GB
#p b3lyp/6-31g(d) 6D 10F nosymm GFInput td=(50-50,nstate=2) SCF=XQC 

Gaussian input prepared by ASE

0 1
C                10.0239773432        0.5786976569        0.1446962777
C                 9.0273159534        0.2807689660       -0.9598513948
O                 7.8033080094       -0.1638385702       -0.3323645763
C                 6.7853365301       -0.4735288962       -1.1691172171
O                 6.8756645772       -0.4064032055       -2.3775292993
C                 5.5450613066       -0.8711869849       -0.3839943007
C                 4.4439880009       -1.4639207271       -1.2956200210
C                 3.3836825194       -0.4033958557       -1.6262649326
N                 2.6960037949        0.1360424396       -0.4392878218
C                 1.3851293909       -0.4232677938       -0.1881664764
C                 0.4860017473        0.5254451094        0.6166013747
O                 0.8546072210        1.5783033948        1.1215101913
N                -0.8169247584        0.1073480009        0.7695357190
N                -1.2622125030       -1.1186644222        0.3289699785
C                -2.4425572153       -1.3382273165        0.8115752608
C                -3.1899075757       -2.5619099167        0.5201342418
C                -2.6696708399       -3.5445160794       -0.3291516355
C                -3.3902915135       -4.7087816159       -0.5925896687
C                -4.6446655501       -4.9201266605       -0.0165428067
O                -5.4219665898       -6.0182059563       -0.2120129070
C                -4.9325930433       -7.0393896268       -1.0666396789
C                -5.1843426228       -3.9318246727        0.8457275486
O                -6.4120169575       -4.2162715802        1.3646468229
C                -7.0065582550       -3.2655694010        2.2309446611
C                -4.4583470112       -2.7735365561        1.1019755511
C                -2.9333234998       -0.2155768043        1.7119256524
C                -1.8315946371        0.8647701048        1.5522428564
C                -2.2774826133        2.1335714335        0.8495865917
C                -1.9650398910        3.3843888241        1.3812560372
C                -2.3667054250        4.5681018751        0.7575382247
C                -3.0952734575        4.5091025186       -0.4361374720
O                -3.5636290185        5.5863995295       -1.1331753581
C                -3.2423752447        6.9109637815       -0.7012037945
C                -1.8394060613        7.3405559033       -1.1182650678
C                -3.4045261957        3.2563663114       -0.9893511501
C                -3.0005104214        2.0905612676       -0.3534496040
C                 3.5365828409        0.1676749667        0.7652936263
C                 5.0083556412        0.3608862221        0.4023970815
H                10.9700528571        0.9202854707       -0.2894802125
H                 9.6475498358        1.3621152163        0.8103665455
H                10.2229120618       -0.3156930695        0.7439651862
H                 8.8117763815        1.1647402460       -1.5688913474
H                 9.3838324057       -0.5043835447       -1.6346103061
H                 5.8626943480       -1.6217273700        0.3505455568
H                 3.9677761581       -2.3108036941       -0.7868801064
H                 4.8890570181       -1.8429353578       -2.2205701819
H                 2.6334312940       -0.8174001578       -2.3074826898
H                 3.8710767759        0.4182779995       -2.1692306601
H                 0.8816992277       -0.6271027201       -1.1382884023
H                 1.4118544097       -1.3928482970        0.3508941791
H                -1.6970486537       -3.3928113399       -0.7838901101
H                -2.9654275003       -5.4543332504       -1.2548551751
H                -4.7728311394       -6.6690441694       -2.0879315661
H                -3.9954524089       -7.4683024156       -0.6877735212
H                -5.7042419377       -7.8110562264       -1.0787167927
H                -7.9693506379       -3.6893679858        2.5220267382
H                -7.1716650059       -2.3042189022        1.7256849616
H                -6.3972497490       -3.0994898779        3.1298432774
H                -4.8734331355       -2.0209034747        1.7610587988
H                -3.0216891925       -0.5641211335        2.7485369781
H                -3.9156137959        0.1623453200        1.4124132326
H                -1.3826669326        1.1337659088        2.5115815182
H                -1.3769236179        3.4431219452        2.2930783657
H                -2.0949426698        5.5173230075        1.2044501873
H                -3.3893883674        7.0035190238        0.3827451963
H                -3.9925550535        7.5413164622       -1.1877286296
H                -1.7288857777        7.2657112322       -2.2047309680
H                -1.0693209527        6.7173250475       -0.6539359456
H                -1.6626891954        8.3816068440       -0.8234962859
H                -3.9635715237        3.2259668846       -1.9194203498
H                -3.2447719740        1.1330920739       -0.8078688731
H                 3.1880152066        0.9788345234        1.4095138254
H                 3.4359863940       -0.7728207817        1.3483813474
H                 5.1040540404        1.2710168840       -0.2027478792
H                 5.6048548315        0.5171960153        1.3059155941



