%chk=./calculation/no_transfer_pubchem_sampling_2_b3lyp/4331273.chk
%nprocshared=7
%mem=6GB
#p b3lyp/6-31g(d) opt SCF=XQC 

Gaussian input prepared by ASE

0 1
C                -5.5396764445       -1.9142203075        2.6672814951
C                -4.4375404675       -1.3311202763        1.8394156350
C                -3.1191523647       -1.4149748263        2.2658238748
C                -2.0780280456       -0.8881452132        1.5245422095
C                -2.3635710185       -0.2580705204        0.3209061677
N                -1.3503613158        0.2957887936       -0.4761472348
N                -1.6584830022        0.8777732060       -1.6414199607
C                -0.5510531860        1.3143187787       -2.1957291101
C                 0.5478227816        1.0167452659       -1.3745096988
C                -0.0127343121        0.3518187287       -0.2613672352
N                 0.6838777450       -0.1236108449        0.8015258432
C                 1.9537982056        0.0480402286        0.7829321072
N                 2.6076136394        0.6741350037       -0.2381049917
C                 3.9260121719        0.9738976816       -0.4852697104
S                 5.1985693335        0.5618176777        0.6157035720
C                 6.5983440633        1.4312131093       -0.1596435076
C                 7.2169757826        0.6292852190       -1.3065687498
N                 6.5629209800        0.7691257787       -2.4697765235
O                 8.2172459504       -0.0338014027       -1.1561757944
N                 4.0314802193        1.5984836645       -1.6292327031
N                 2.8113382585        1.7342543550       -2.1761757303
C                 1.9477308202        1.1924349435       -1.3670883353
C                -3.6791121843       -0.1654264308       -0.1210491906
C                -4.7183952935       -0.6947994243        0.6244398025
C                -6.1264463601       -0.5841182595        0.1279602305
H                -6.0745465925       -2.6806510947        2.1072551307
H                -5.1449089471       -2.3613823739        3.5756718869
H                -6.2602276960       -1.1451951499        2.9435182428
H                -2.8976746644       -1.9054071269        3.2025328362
H                -1.0616469656       -0.9630654034        1.8719471468
H                -0.5654688753        1.8162514642       -3.1408930334
H                 2.5548467300       -0.3118850699        1.6048367135
H                 6.2344462685        2.4005164840       -0.4952093363
H                 7.3329882340        1.5414157107        0.6371441586
H                 5.6642237155        1.2444590910       -2.5079652125
H                 6.8877715176        0.2479038399       -3.2676587332
H                -3.8726247602        0.3287508136       -1.0599098375
H                -6.1584248402       -0.0599372966       -0.8230119371
H                -6.5637984348       -1.5730055100       -0.0048384926
H                -6.7441306460       -0.0437793069        0.8443080059



