%chk=calculation/no_transfer_pubchem_sampling_2_b3lyp/4331273_rwf.chk
%rwf=calculation/no_transfer_pubchem_sampling_2_b3lyp/4331273_rwf.rwf
%nprocshared=14
%mem=3GB
#p b3lyp/6-31g(d) 6D 10F nosymm GFInput td=(50-50,nstate=2) SCF=XQC 

Gaussian input prepared by ASE

0 1
C                -5.6092627424       -1.8579693292        2.7579526943
C                -4.5008022768       -1.3717463708        1.8559073241
C                -3.1893167216       -1.8171465795        2.0435011925
C                -2.1386915865       -1.3976454136        1.2289482676
C                -2.4082878406       -0.4917706100        0.2029757154
N                -1.3739272377       -0.0290453778       -0.6657351522
N                -1.6944584954        0.4082013175       -1.9160602422
C                -0.5647678662        0.8026056054       -2.4890717227
C                 0.5297208282        0.6280374686       -1.6161561216
C                -0.0274456232        0.0929764366       -0.4433107061
N                 0.6411741205       -0.2196835843        0.7080552115
C                 1.9186818230       -0.0159098084        0.6898263246
N                 2.5857447210        0.4851573867       -0.4170471702
C                 3.9183549787        0.7826566665       -0.6569300841
S                 5.1779085540        0.5034253536        0.5390920250
C                 6.4597677546        1.7077644148       -0.0275208278
C                 7.4493293209        1.1365339826       -1.0566076633
N                 6.9752858865        1.0819976248       -2.3265447640
O                 8.5760354342        0.8048762024       -0.7170746436
N                 4.0428430055        1.2708453063       -1.8691789576
N                 2.8001329809        1.3268976820       -2.4761654216
C                 1.9349314607        0.8485557935       -1.6131917173
C                -3.7121450629       -0.0300671261       -0.0035132448
C                -4.7622579576       -0.4625159600        0.8070207347
C                -6.1607803691        0.0509172502        0.5576404121
H                -6.3972541952       -2.3720726716        2.1924229561
H                -5.2286816705       -2.5565942616        3.5089818105
H                -6.0941298439       -1.0285274280        3.2890925608
H                -2.9798140382       -2.5216733971        2.8446618750
H                -1.1336393187       -1.7620040658        1.3958519006
H                -0.5746475353        1.1874025024       -3.4991520924
H                 2.5268713495       -0.2290236690        1.5631290393
H                 5.9421265410        2.5983537711       -0.3930321651
H                 7.0270692169        1.9491164910        0.8724866978
H                 5.9863161331        1.2366782926       -2.5195097271
H                 7.5574067287        0.6354289232       -3.0215897573
H                -3.8984906373        0.6666116948       -0.8127266347
H                -6.1822137358        0.7447293815       -0.2875796215
H                -6.8577297821       -0.7676257629        0.3362631072
H                -6.5609563013        0.5770858674        1.4338885880



