%chk=./calculation/no_transfer_pubchem_sampling_2_b3lyp/51187527.chk
%nprocshared=7
%mem=6GB
#p b3lyp/6-31g(d) opt SCF=XQC 

Gaussian input prepared by ASE

0 1
C                 4.4640459594       -1.6400451004        2.4257276857
C                 3.2185400910       -1.7910172398        1.5629476505
C                 2.9931114201       -0.5538905637        0.6800198797
N                 1.7325650973       -0.6645686460       -0.0338255844
C                 0.6720296338        0.1303151275        0.2169894042
O                 0.6821319901        1.0098121133        1.0517929112
C                -0.5577197617       -0.2074442178       -0.6250136067
C                -1.5226858475        0.9791560796       -0.6544798037
C                -2.8081654027        0.5776967928       -1.3792387429
N                -3.4224698010       -0.5617980296       -0.7385158390
C                -4.4762206412       -0.5671113579        0.1417136056
O                -4.8951979712       -1.6079515425        0.6083150761
N                -5.0194937627        0.6666294952        0.4136772211
C                -6.1774309484        0.9571618669        1.1368089810
C                -7.0773085415       -0.0155728579        1.5616426653
C                -8.2136649974        0.3562434815        2.2560357505
C                -8.4732364741        1.6872469872        2.5346866411
C                -7.5802422797        2.6571119100        2.1111989105
C                -6.4415883323        2.2974767795        1.4173775193
C                -2.5629527697       -1.7261623662       -0.7628379364
C                -1.2604376737       -1.4290536040       -0.0154200752
C                 4.1268307917       -0.3405889864       -0.2926200694
C                 4.4108929827       -1.2794788407       -1.2804254827
C                 5.4455358545       -1.0823294011       -2.1681984332
C                 6.2339402276        0.0671667973       -2.0930905605
O                 7.2308507569        0.1643173654       -3.0146065427
C                 8.0619982355        1.2992154770       -2.9893520231
C                 5.9565354287        1.0102996558       -1.1104621519
C                 4.9107183250        0.8000839547       -0.2273542124
H                 4.3732771155       -0.7716153637        3.0735788223
H                 5.3459574088       -1.5139810708        1.8016749776
H                 4.6024450081       -2.5208283288        3.0477846394
H                 2.3414446164       -1.9228996107        2.1997754036
H                 3.3155049468       -2.6769144150        0.9315189117
H                 2.8872474324        0.3267893050        1.3219733612
H                 1.6708284978       -1.3725554798       -0.7475419564
H                -0.2419280726       -0.4456614628       -1.6475380786
H                -1.0540349172        1.8264760114       -1.1570520746
H                -1.7400164827        1.2754333857        0.3732332434
H                -3.5019758057        1.4155116228       -1.4561391223
H                -2.5604068367        0.2745305750       -2.4052176812
H                -4.4857418681        1.4822376245        0.1566909697
H                -6.8749491857       -1.0520910330        1.3528667681
H                -8.9046653947       -0.4070427052        2.5822664491
H                -9.3630753918        1.9682512809        3.0776348025
H                -7.7697585438        3.6996726759        2.3215332741
H                -5.7474243960        3.0598597737        1.0884329323
H                -2.3514583826       -1.9895047106       -1.8052089183
H                -3.1013440217       -2.5470838348       -0.2879664919
H                -0.6091573673       -2.3040820444       -0.0511498129
H                -1.4929825314       -1.2203220902        1.0308675707
H                 3.8219791696       -2.1824562096       -1.3580874299
H                 5.6697513190       -1.8075356063       -2.9344554960
H                 7.4926609375        2.2185708802       -3.1604315839
H                 8.6054710388        1.3787222387       -2.0423018002
H                 8.7738988099        1.1611287722       -3.8015211225
H                 6.5428178064        1.9111462196       -1.0216106578
H                 4.7047245014        1.5433244706        0.5287292631



