%chk=calculation/no_transfer_pubchem_sampling_2_b3lyp/55355316_rwf.chk
%rwf=calculation/no_transfer_pubchem_sampling_2_b3lyp/55355316_rwf.rwf
%nprocshared=14
%mem=3GB
#p b3lyp/6-31g(d) 6D 10F nosymm GFInput td=(50-50,nstate=2) SCF=XQC 

Gaussian input prepared by ASE

0 1
C                 0.8698875680       -0.3362927486       -4.6544447490
C                 1.6099773716        0.3052381565       -3.4812166734
N                 2.3508017601       -0.6851366407       -2.6812814852
N                 1.6795863722       -1.2046186270       -1.6472292939
C                 2.2420845016       -2.1084921848       -0.8876561787
C                 1.3927052825       -2.5894628227        0.2532411624
O                 1.8107900954       -3.2400942932        1.1914952499
O                 0.1008927192       -2.2225792336        0.1211294734
C                -0.7955901001       -2.6298048092        1.1831558966
C                -2.2083069590       -2.6269996677        0.6058319533
C                -0.7077114737       -1.7927474088        2.4743765957
O                -1.0161304114       -2.3639629183        3.5172804931
N                -0.3222571295       -0.4808566082        2.4334448679
C                -0.2822996400        0.2583167442        3.6924235208
C                -1.4779295615        1.2261772117        3.7995353393
N                -1.8945723777        1.6791956638        2.4655137236
C                -2.7282104314        2.8756648582        2.5294097309
C                -3.4645466365        3.1638283662        1.2341764532
C                -4.1690379503        2.1452208979        0.5767163016
C                -4.8804897747        2.4138691594       -0.5916046013
C                -4.9008184130        3.7073284829       -1.1211664056
C                -4.2013476685        4.7270170789       -0.4759661089
C                -3.4857209093        4.4532975631        0.6923693571
C                -0.7519251317        1.7864373952        1.5668298664
C                -0.2333101675        0.3717195498        1.2378026818
C                 3.5943032148       -2.5995835160       -1.1157281804
C                 4.2518014051       -3.5706255666       -0.3280463920
C                 5.5397174016       -3.9710880769       -0.6520944817
C                 6.2127510494       -3.4266275474       -1.7581288700
C                 5.5844397280       -2.4742712780       -2.5436091291
C                 4.2818493906       -2.0582250344       -2.2287690217
C                 3.6448915422       -1.0520107588       -3.0860558808
O                 4.1543472850       -0.5423724445       -4.0790372275
H                 0.1563037442       -1.0871402716       -4.2993602534
H                 0.3166429829        0.4298603487       -5.2087114793
H                 1.5766116232       -0.8121913739       -5.3403360586
H                 0.9161191549        0.7906166177       -2.7922671823
H                 2.3393144420        1.0349105643       -3.8371499731
H                -0.5153860476       -3.6351735525        1.5006645133
H                -2.9056981733       -2.9652520540        1.3774439456
H                -2.5110804634       -1.6280250363        0.2763783635
H                -2.2670430044       -3.3073741146       -0.2491122243
H                -0.2916581208       -0.4626193818        4.5087060197
H                 0.6625668612        0.8135965309        3.7323369398
H                -2.3314708531        0.7307643645        4.2778079903
H                -1.1796316718        2.0726662956        4.4481312166
H                -2.1485992338        3.7705840207        2.8320916941
H                -3.4617356950        2.7049431918        3.3299074494
H                -4.1438277390        1.1400744221        0.9883772023
H                -5.4230536613        1.6141773476       -1.0895610236
H                -5.4567000808        3.9165086536       -2.0313389161
H                -4.2066465340        5.7350318882       -0.8825819319
H                -2.9381424860        5.2511900558        1.1897776479
H                -1.0712089156        2.2658988990        0.6371605216
H                 0.0558546739        2.4166118506        1.9880366444
H                 0.7998169604        0.4288757796        0.8699301180
H                -0.8381322876       -0.0566872908        0.4405857352
H                 3.7434372669       -3.9875584010        0.5300350418
H                 6.0326728417       -4.7184367248       -0.0363263687
H                 7.2214860466       -3.7520689327       -1.9960455381
H                 6.0685654181       -2.0311996391       -3.4072770819



