%chk=calculation/no_transfer_pubchem_sampling_2_b3lyp/57035910_rwf.chk
%rwf=calculation/no_transfer_pubchem_sampling_2_b3lyp/57035910_rwf.rwf
%nprocshared=14
%mem=3GB
#p b3lyp/6-31g(d) 6D 10F nosymm GFInput td=(50-50,nstate=2) SCF=XQC 

Gaussian input prepared by ASE

0 1
C                -4.6029438329       -2.0059208729       -1.6781363499
C                -5.4262248360       -1.4999375424       -0.7600209684
C                -6.2587288966       -0.2423483221       -0.9285667702
O                -5.6829176112        0.5097354283       -2.0084654091
C                -7.6318368284       -0.7360789835       -1.3847961611
C                -8.7549392091       -0.8756741839       -0.6785294291
C                -6.3085977640        0.5902679323        0.3892248610
C                -7.0624179531        1.9266207603        0.2061379516
C                -4.9678972123        0.8657085201        1.0518202897
C                -3.7958666664        1.0859301701        0.4473591129
C                -2.4772337392        1.4100738220        1.1288146112
C                -2.6441935419        1.7508643710        2.6159501176
C                -1.4624502266        0.2607580461        0.8546972715
C                -1.2837264093       -0.0163188721       -0.6747480468
C                 0.1687266686       -0.5235857297       -0.8847965902
C                 0.6892033696       -0.7463406775        0.5392039855
C                 2.1638407636       -0.8829161876        0.8237390796
C                 3.1185615630       -0.7689703362       -0.1292651567
C                 4.5515737176       -0.8971700579        0.0519292422
C                 5.4856353282       -0.7417282811       -0.9199127912
C                 5.1205407631       -0.3461634232       -2.3458942636
C                 6.3326123635       -0.0578948148       -3.2359479147
O                 6.8701416614       -1.3219252450       -3.6416253060
C                 7.3638629849        0.7777953821       -2.4769419075
C                 7.9229393455        0.0298518794       -1.2581472114
O                 8.3019673944        1.0445613418       -0.3172406153
C                 6.9209793834       -0.9450147021       -0.6363703897
C                 7.3806232720       -1.9314643581        0.1513667534
C                 2.4181844061       -1.1752283918        2.2885531303
C                 1.7103724877       -0.1628064555        3.2170676166
C                 0.2206907944        0.0333379290        2.8739875051
C                 0.0047602083        0.3847441516        1.3858474242
C                 0.6012838560        1.7694536232        1.0573903126
H                -4.0776781071       -2.9415097560       -1.5060927788
H                -4.4240334216       -1.4975657476       -2.6199982517
H                -5.6017796639       -2.0289705355        0.1752396224
H                -6.3057395456        1.2211759536       -2.2248427185
H                -7.6158434110       -1.0480691890       -2.4292640697
H                -8.8350866366       -0.6055841877        0.3708155405
H                -9.6524573395       -1.2825627083       -1.1367077112
H                -6.8873679275       -0.0161912157        1.0997747492
H                -6.5039287236        2.5911741542       -0.4631960967
H                -8.0709813069        1.7827097186       -0.1949147638
H                -7.1507024719        2.4458543439        1.1664866460
H                -5.0307052060        0.9475198841        2.1369420109
H                -3.7579649201        1.0164242968       -0.6364594424
H                -2.0842342717        2.3085243474        0.6258055647
H                -3.4327631083        2.4990465154        2.7530751994
H                -1.7244286881        2.1647059035        3.0360509822
H                -2.9133972195        0.8678930127        3.2080047417
H                -1.8862075929       -0.6442562730        1.3156593832
H                -2.0252530029       -0.7411062807       -1.0226056965
H                -1.4562966290        0.8995842464       -1.2526965729
H                 0.2148436746       -1.4370943557       -1.4871573525
H                 0.7676233243        0.2306409140       -1.4075094039
H                 0.2229441281       -1.6801380147        0.9016889330
H                 2.7823436302       -0.5780114361       -1.1453901799
H                 4.9138780290       -1.1233761598        1.0513683413
H                 4.4851678696        0.5490165150       -2.3372237901
H                 4.5348280611       -1.1421294981       -2.8240260133
H                 5.9879735216        0.4986991222       -4.1218802839
H                 7.6701012446       -1.1477176681       -4.1623672939
H                 6.8849345365        1.6965534574       -2.1169036321
H                 8.1850556283        1.0886412136       -3.1356209748
H                 8.8122168746       -0.5464370952       -1.5532295617
H                 8.5357464827        0.5889816780        0.5071673807
H                 8.4457786519       -2.0605701158        0.3364463224
H                 6.7171052845       -2.6553422961        0.6148411763
H                 2.0227572302       -2.1798821840        2.5105010060
H                 3.4855995185       -1.2038877657        2.5242153602
H                 1.8048673001       -0.5003703221        4.2570483879
H                 2.2328914795        0.8001494357        3.1593321903
H                -0.3249958745       -0.8956942587        3.0974375101
H                -0.1951747289        0.8027612215        3.5330904402
H                 0.3807816565        2.0767471048        0.0296586488
H                 1.6898003420        1.7779252193        1.1671475746
H                 0.1932547245        2.5395198860        1.7219718922



