%chk=./calculation/no_transfer_pubchem_sampling_2_b3lyp/5801148.chk
%nprocshared=7
%mem=6GB
#p b3lyp/6-31g(d) opt SCF=XQC 

Gaussian input prepared by ASE

0 1
C                -0.7873863491       -4.7026017421        0.1580368207
C                -1.6240788387       -3.6047495897       -0.4181826030
C                -1.2207890533       -2.2560387727       -0.2659763324
C                 0.0753327323       -2.0290598211        0.3542654494
C                 1.1246361216       -1.3885670258       -0.1917425326
S                 1.2212918445       -0.6814638999       -1.7939049806
C                 2.9051481212       -0.2287870297       -1.5449528784
S                 3.8100595144        0.5394548721       -2.6595488022
N                 3.3241975235       -0.6109395930       -0.3096183080
C                 4.6654918276       -0.3177373625        0.1700255732
C                 4.7579507844        1.1110483541        0.6413779631
C                 5.5102548541        2.0459880254       -0.0563474838
C                 5.5613447422        3.3622698316        0.3664747436
C                 4.8447743545        3.7276164358        1.4910556073
F                 4.8841539884        5.0094357038        1.9065625218
C                 4.0866840829        2.8158402868        2.2042611167
C                 4.0488999388        1.5036142987        1.7716886434
C                 2.4086276822       -1.2489700114        0.5041695789
O                 2.6509780052       -1.6302027089        1.6269169811
C                -2.0337418658       -1.2242643445       -0.7465668092
N                -1.8215678860        0.1108277266       -0.4712475054
C                -1.2646515519        0.5241178103        0.8000486536
C                -2.2728162918        1.2854457520        1.6727469106
C                -3.0904252288        2.3627785961        0.9531495733
C                -2.3429886563        3.0927753460       -0.1628979945
C                -2.4202658720        2.3511865086       -1.4964572799
C                -1.6039366411        1.0580395493       -1.5569311121
N                -3.1683175460       -1.5411394070       -1.4268770443
C                -4.1525629068       -0.5328829363       -1.7563713601
C                -3.5595406934       -2.8605905974       -1.7517806529
O                -4.5444130982       -3.0356649102       -2.4397299774
C                -2.7447770284       -3.8930205473       -1.1618255329
C                -3.1580121017       -5.2235697443       -1.3808433119
N                -3.4841503828       -6.3107394632       -1.5468338195
H                -1.1986130805       -5.6739589080       -0.1034037404
H                 0.2340929886       -4.6405084427       -0.2152431971
H                -0.7518062013       -4.6219399409        1.2444314209
H                 0.2700679866       -2.5046661145        1.3105161690
H                 5.3709592795       -0.5046174521       -0.6422581464
H                 4.8475969274       -1.0086711921        0.9981331631
H                 6.0559160747        1.7474105854       -0.9379417039
H                 6.1414399699        4.0998604312       -0.1644528749
H                 3.5450149091        3.1356680433        3.0802872560
H                 3.4699953276        0.7743902886        2.3191287893
H                -0.9377123980       -0.3456249689        1.3719594477
H                -0.3828349637        1.1500920484        0.6220209162
H                -2.9638074208        0.5705364975        2.1237920383
H                -1.7006083215        1.7418913836        2.4825907229
H                -3.4185607614        3.0862673121        1.7015939351
H                -3.9935718652        1.9177946047        0.5304302877
H                -2.8016003527        4.0735965310       -0.3039095899
H                -1.3034916984        3.2595750510        0.1222755962
H                -3.4688715221        2.1582441827       -1.7244954453
H                -2.0319438753        2.9980199449       -2.2863252324
H                -0.5426547949        1.3406348495       -1.5450278654
H                -1.7869916520        0.5528450940       -2.5057795614
H                -4.1802513848        0.2118880755       -0.9653726943
H                -5.1159129773       -1.0374119749       -1.8402344697
H                -3.9412563190       -0.0607695193       -2.7156770365



