%chk=calculation/no_transfer_pubchem_sampling_2_b3lyp/5801148_rwf.chk
%rwf=calculation/no_transfer_pubchem_sampling_2_b3lyp/5801148_rwf.rwf
%nprocshared=14
%mem=3GB
#p b3lyp/6-31g(d) 6D 10F nosymm GFInput td=(50-50,nstate=2) SCF=XQC 

Gaussian input prepared by ASE

0 1
C                -0.6463371566       -4.6619358760        0.1252106476
C                -1.5708182827       -3.6095160336       -0.4342233950
C                -1.2356687373       -2.2270779521       -0.2812645999
C                 0.0788976385       -1.9177650787        0.3155384585
C                 1.1374815142       -1.3448514034       -0.2875885715
S                 1.3047833880       -0.8308098924       -1.9713226124
C                 3.0071905284       -0.3677389452       -1.7330233232
S                 3.9289468066        0.2245723903       -2.9632358951
N                 3.3844554075       -0.5927025040       -0.4290893777
C                 4.7417323536       -0.3024520360        0.0894863356
C                 4.8754587952        1.0804476503        0.6948403192
C                 5.4064839891        2.1394455151       -0.0536343382
C                 5.5408194235        3.4117696921        0.5017388343
C                 5.1367626727        3.6106343829        1.8164376425
F                 5.2636125538        4.8379774231        2.3615196947
C                 4.6090442889        2.5819871640        2.5892669801
C                 4.4827612994        1.3155369198        2.0208875407
C                 2.4191023952       -1.1350489758        0.4355867734
O                 2.6334526469       -1.3949913073        1.6065650937
C                -2.1318817000       -1.2391388110       -0.7131281399
N                -1.9865307649        0.1272269527       -0.4689568678
C                -1.4530475415        0.6148455973        0.8108510958
C                -2.4422686342        1.4619966014        1.6307913494
C                -3.2070977799        2.5718395738        0.8774891406
C                -2.4802424343        3.1981169486       -0.3252893989
C                -2.5715028855        2.3475572293       -1.6036375080
C                -1.7678858073        1.0412261067       -1.6143962481
N                -3.2809617014       -1.6188747395       -1.3779043081
C                -4.3501832830       -0.6618483136       -1.6880444387
C                -3.5908860963       -2.9690589953       -1.7228729640
O                -4.5800158738       -3.2153474437       -2.4003548764
C                -2.7011873101       -3.9631473099       -1.1485057820
C                -3.0538408753       -5.3286434509       -1.3724909072
N                -3.3138704351       -6.4518145050       -1.5341767711
H                -1.0147755210       -5.6676907606       -0.0819089668
H                 0.3579794617       -4.5662375979       -0.3029632177
H                -0.5427955542       -4.5517892524        1.2117775786
H                 0.2739884688       -2.2489381518        1.3369638651
H                 5.4281909019       -0.4338012754       -0.7478606402
H                 4.9356767996       -1.0725227185        0.8389110902
H                 5.7146233713        1.9680356516       -1.0805180272
H                 5.9528518366        4.2400558411       -0.0651438659
H                 4.3138340148        2.7784122416        3.6147892539
H                 4.0722014938        0.5000217672        2.6084371191
H                -1.1515864322       -0.2327652593        1.4275519760
H                -0.5395809273        1.1917033029        0.6113157464
H                -3.1684592785        0.7955914902        2.1129409945
H                -1.8524166746        1.9075063852        2.4436206100
H                -3.4611077250        3.3575311148        1.5993389123
H                -4.1687663521        2.1773514509        0.5233044595
H                -2.9394470616        4.1706184793       -0.5415886152
H                -1.4301718031        3.4110055219       -0.0785625787
H                -3.6294766252        2.1390920085       -1.8056501695
H                -2.2069155030        2.9362018140       -2.4563886671
H                -0.6960823597        1.2867723194       -1.6414631571
H                -1.9788968643        0.4907603566       -2.5353553855
H                -4.3550284474        0.1187427046       -0.9298378931
H                -5.2886966365       -1.2134261761       -1.6984739303
H                -4.2119029852       -0.2146518318       -2.6771240740



