%chk=./calculation/no_transfer_pubchem_sampling_2_b3lyp/58382971.chk
%nprocshared=7
%mem=6GB
#p b3lyp/6-31g(d) opt SCF=XQC 

Gaussian input prepared by ASE

0 1
C                 3.6362914264       -1.6400567525        1.5669726274
C                 3.7677375630       -0.1222253842        1.4776544782
N                 3.0830047042        0.4221637415        0.3128230950
C                 3.9113117240        0.8574966309       -0.7902464653
C                 4.6217570700       -0.2959923451       -1.4955021001
C                 1.7355133470        0.4694826223        0.3863918735
O                 1.1400383844        0.1200496249        1.3895550348
C                 0.9535425637        0.9414181789       -0.8438293065
S                 1.1660965789       -0.3249826057       -2.1597332732
C                 0.4085808174       -1.6706239605       -1.2933348818
C                 0.9510133005       -2.9327078318       -1.4645218817
C                 0.4315116017       -4.0140877307       -0.7765649054
C                -0.6108613089       -3.8177134770        0.1125813922
C                -1.1630976493       -2.5603291397        0.2741295915
C                -0.6987979043       -1.4643929039       -0.4513564278
C                -1.2551329746       -0.1280368244       -0.3587631640
C                -0.4987399500        1.0092220399       -0.5633525779
C                -1.3569958232        2.1275802533       -0.4397111549
C                -1.1692677696        3.5081263909       -0.5312844515
C                -2.2640203867        4.3302150923       -0.3677071103
O                -2.1667866144        5.6914583205       -0.4412330135
C                -3.5395979705        3.7979132129       -0.1191709975
C                -3.7416947123        2.4409762979       -0.0214732137
C                -2.6451739722        1.6004034426       -0.1763270919
N                -2.5626034873        0.2312312602       -0.1340647453
C                -3.6981100442       -0.6228149133        0.0614899477
C                -4.0823408590       -0.7296083754        1.5443758952
O                -5.0942123577       -1.7042875083        1.6554712873
H                 2.5864738766       -1.9080564663        1.6508780997
H                 4.1606194913       -2.0026858674        2.4472568495
H                 4.0494570187       -2.1238935840        0.6860033329
H                 4.8167916297        0.1738450993        1.4245556074
H                 3.3161865043        0.3221569818        2.3698981312
H                 3.3029032267        1.3896494534       -1.5190350045
H                 4.6578706870        1.5596287475       -0.3972951573
H                 5.3192180940       -0.7946130667       -0.8282309703
H                 3.8935060989       -1.0174386029       -1.8550120180
H                 5.1759927257        0.0895270362       -2.3471944750
H                 1.3293334872        1.8825007982       -1.2445948538
H                 1.7872042458       -3.0575676333       -2.1362550813
H                 0.8582993096       -4.9960043225       -0.9140729586
H                -0.9962095978       -4.6463058675        0.6878046810
H                -1.9467464590       -2.4256569218        1.0004078617
H                -0.1886654133        3.9224388278       -0.7254462613
H                -1.2508621085        5.9394899841       -0.6119669180
H                -4.3578435678        4.4903516256       -0.0048251655
H                -4.7301381245        2.0526451569        0.1693327103
H                -4.5508120712       -0.2212959040       -0.4943692992
H                -3.4859626832       -1.6209556638       -0.3260430951
H                -3.1978746727       -1.0081791273        2.1358317220
H                -4.4327774167        0.2469472571        1.9051595624
H                -5.3749275777       -1.7664052968        2.5739462392



