%chk=./calculation/no_transfer_pubchem_sampling_2_b3lyp/63460176.chk
%nprocshared=7
%mem=6GB
#p b3lyp/6-31g(d) opt SCF=XQC 

Gaussian input prepared by ASE

0 1
C                 5.4110037492        1.9689823544        1.2645348074
C                 3.9788548676        1.5087246057        1.0203743277
C                 3.8525565306       -0.0094639393        1.1303746265
C                 2.4631477044       -0.5347322718        0.7709524329
C                 1.3899579276       -0.1369440564        1.7828333219
C                 0.0308957379       -0.7263853068        1.4228852242
O                -0.4017190567       -0.1129372683        0.2189373090
C                -1.5686591771       -0.4901470391       -0.3213028080
C                -2.4235752762       -1.4412451074        0.1980283839
C                -3.6089851557       -1.7211234456       -0.4923567175
C                -4.5689081880       -2.7493733782        0.0364770088
O                -4.3852006411       -3.3720673346        1.0473398706
O                -5.6432730238       -2.8937139637       -0.7349508642
N                -3.9815025761       -1.1437430024       -1.6122962829
C                -3.1706453857       -0.2095635037       -2.1464815007
C                -3.5571367826        0.4193621358       -3.3476110259
C                -2.7573410043        1.3716322740       -3.9156689547
C                -1.5440318506        1.7362955107       -3.3134401693
C                -1.1422515845        1.1434321809       -2.1473182602
C                -1.9417532792        0.1598925887       -1.5377665280
H                 5.4842967245        3.0513127823        1.1881176544
H                 6.0849942804        1.5272539140        0.5337088848
H                 5.7424614207        1.6722494645        2.2572604930
H                 3.3230267632        1.9896698102        1.7478169517
H                 3.6617587551        1.8245782007        0.0238792084
H                 4.1047731889       -0.3206804410        2.1468586644
H                 4.5803037959       -0.4678252981        0.4564473742
H                 2.1773667812       -0.1636608520       -0.2149263135
H                 2.5038359132       -1.6256886131        0.7162842715
H                 1.6677330698       -0.4905007236        2.7771000931
H                 1.2924193567        0.9482250962        1.8168756126
H                 0.1105473075       -1.8117003359        1.2802120035
H                -0.6962602023       -0.5270843228        2.2207348798
H                -2.2323898174       -1.9834966657        1.1086930275
H                -5.5460638401       -2.2732434648       -1.4890357071
H                -4.4938402233        0.1255910374       -3.7949143301
H                -3.0559174691        1.8518042830       -4.8357263793
H                -0.9279925917        2.4911147918       -3.7787629252
H                -0.2124887490        1.4152003041       -1.6723166650



