%chk=calculation/no_transfer_pubchem_sampling_2_b3lyp/63460176_rwf.chk
%rwf=calculation/no_transfer_pubchem_sampling_2_b3lyp/63460176_rwf.rwf
%nprocshared=14
%mem=3GB
#p b3lyp/6-31g(d) 6D 10F nosymm GFInput td=(50-50,nstate=2) SCF=XQC 

Gaussian input prepared by ASE

0 1
C                 5.4824170553        1.9822735828        1.3935877049
C                 4.0528685341        1.5256211332        1.0838416324
C                 3.8961223873       -0.0016608837        1.1131478233
C                 2.4981214571       -0.5160714062        0.7328337645
C                 1.3960600646       -0.1491970197        1.7371759389
C                 0.0330542391       -0.7294419014        1.3890289340
O                -0.4089703265       -0.1234861500        0.1612141537
C                -1.5935651648       -0.4972156056       -0.3607950433
C                -2.4427329095       -1.4394191435        0.1897536670
C                -3.6487189207       -1.7176374340       -0.4848603546
C                -4.5974517974       -2.7445045405        0.0926710167
O                -4.3756380411       -3.3497954523        1.1177434908
O                -5.7062840015       -2.9178546410       -0.6413543910
N                -4.0428046382       -1.1494675514       -1.6103232018
C                -3.2207213948       -0.2144386822       -2.1710068095
C                -3.6212536149        0.4116164624       -3.3788270059
C                -2.8187353857        1.3604429077       -3.9727022444
C                -1.5838648887        1.7240734561       -3.3857177231
C                -1.1666834040        1.1329647699       -2.2119278125
C                -1.9719438736        0.1539266125       -1.5811634289
H                 5.5690652979        3.0742894120        1.3639151676
H                 6.1955765467        1.5710263882        0.6686154570
H                 5.7972230439        1.6503612154        2.3906447265
H                 3.3641964662        1.9887203893        1.8029848467
H                 3.7553623026        1.8983025321        0.0930337420
H                 4.1627821264       -0.3751328613        2.1134000513
H                 4.6283902422       -0.4420988751        0.4220155975
H                 2.2243460859       -0.1349385481       -0.2594542292
H                 2.5360792511       -1.6109649052        0.6409718517
H                 1.6647987092       -0.5233794374        2.7350292770
H                 1.2957205206        0.9390556539        1.8267332070
H                 0.0890051422       -1.8178114048        1.2529795617
H                -0.7014574089       -0.5166144547        2.1762982787
H                -2.2339322841       -1.9737928956        1.1065497619
H                -5.6157436168       -2.3024021997       -1.4063932284
H                -4.5729051972        0.1168649092       -3.8097022216
H                -3.1336851891        1.8350649720       -4.8978814628
H                -0.9617054192        2.4747945028       -3.8647001744
H                -0.2223939961        1.4079280942       -1.7555093214



