%chk=./calculation/no_transfer_pubchem_sampling_2_b3lyp/64663462.chk
%nprocshared=7
%mem=6GB
#p b3lyp/6-31g(d) opt SCF=XQC 

Gaussian input prepared by ASE

0 1
C                -3.4295533803        1.7508972638        0.3462877363
C                -2.1018432908        1.1355394284       -0.0811294248
C                -1.8456246894       -0.1976221432        0.6065393125
C                -0.7063738410       -1.0433093204       -0.0198767633
N                -0.6900200592       -1.1828010415       -1.4570106379
C                -1.8123468371       -1.9073624888       -2.0153998957
C                 0.5696613083       -0.4292130632        0.4910239754
C                 1.7940641821       -0.4618205710       -0.1510105544
C                 2.8835306972        0.1696558304        0.4463239411
O                 4.1333476859        0.2126742335       -0.0846174367
C                 4.3660747110       -0.4303591117       -1.3151444589
C                 2.7275500130        0.8211484098        1.6744742145
C                 1.5040807658        0.8377909565        2.3134121438
C                 0.4306676982        0.2149031302        1.7070806342
S                -1.2507055636        0.0895753815        2.3641058762
O                -1.6486399332        1.4283598510        2.8078285796
H                -3.5935477807        2.6889341261       -0.1790727101
H                -4.2555269920        1.0788222535        0.1183066776
H                -3.4221065958        1.9498779044        1.4135906705
H                -2.1109868109        0.9978317044       -1.1671586542
H                -1.2871927121        1.8234063258        0.1599939866
H                -2.7698141566       -0.7753002896        0.6752388586
H                -0.7865347000       -2.0625348465        0.3881854557
H                -0.5940470238       -0.2738427155       -1.8981091183
H                -1.8436392207       -2.8994632055       -1.5645447604
H                -1.6530977032       -2.0189175320       -3.0868532887
H                -2.7857791072       -1.4241473019       -1.8555568495
H                 1.8682380547       -0.9712733575       -1.0974738094
H                 3.7605568470        0.0044614538       -2.1165895479
H                 5.4207307553       -0.2719701527       -1.5342794072
H                 4.1662435107       -1.5044854454       -1.2508889449
H                 3.5883646495        1.3067143152        2.1052181022
H                 1.3742695190        1.3438310182        3.2571060977



