%chk=./calculation/no_transfer_pubchem_sampling_2_b3lyp/671152.chk
%nprocshared=7
%mem=6GB
#p b3lyp/6-31g(d) opt SCF=XQC 

Gaussian input prepared by ASE

0 1
O                -0.1488458007       -3.1605365396        1.0046983198
C                -1.2314385004       -2.6693424407        0.8146392669
O                -2.3896642911       -3.3576672172        0.9990343413
N                -3.4686530194       -2.5595316391        0.7109766553
C                -3.0620604891       -1.3812980084        0.3470154667
C                -4.0466146991       -0.3956196394        0.0018457235
C                -3.9246382074        0.9063157363       -0.4114251563
C                -5.1646675124        1.5253028308       -0.6467234912
C                -6.2157683866        0.6930482415       -0.4116367052
S                -5.7183607257       -0.8642285805        0.1013971923
C                -1.6117701681       -1.3093194162        0.3685216268
C                -0.7482446050       -0.3013878935        0.0732672849
C                 0.6614903041       -0.4206880721        0.1546997036
C                 1.4877679523        0.6075802187       -0.1481605089
C                 2.9280219942        0.5935082118       -0.0993785404
C                 3.6656249196       -0.5345029088        0.2833430600
C                 5.0444095974       -0.4932616812        0.3125842171
C                 5.7207286060        0.6664253889       -0.0367616558
C                 5.0063659138        1.7918318762       -0.4179390475
C                 3.6274467181        1.7564133954       -0.4490457282
H                -2.9899348218        1.4167739532       -0.5469021161
H                -5.2680117904        2.5436360831       -0.9757809455
H                -7.2607278823        0.9097692814       -0.5121794528
H                -1.1434658677        0.6546585430       -0.2440550102
H                 1.0475964008       -1.3766521420        0.4717577906
H                 1.0455950352        1.5477560710       -0.4618984599
H                 3.1556701417       -1.4440930106        0.5579776882
H                 5.5996190857       -1.3704708170        0.6096450761
H                 6.7997910617        0.6926919490       -0.0119578155
H                 5.5286493474        2.6969216614       -0.6907614533
H                 3.0740886893        2.6359665645       -0.7467993261



