%chk=./calculation/no_transfer_pubchem_sampling_2_b3lyp/69029023.chk
%nprocshared=7
%mem=6GB
#p b3lyp/6-31g(d) opt SCF=XQC 

Gaussian input prepared by ASE

0 1
C                -1.7107297701        2.8128913639        0.1064223364
C                -1.6706804903        1.6598792267        1.1288255477
C                -2.5387473884        0.5180822021        0.6812568212
C                -2.0325873877       -0.5206834349        0.0091117457
C                -2.8891969626       -1.6825478030       -0.4163026262
C                -2.2503997733       -2.4311086882       -1.5844627080
O                -0.9233238903       -2.7881721073       -1.2846068279
C                -0.0960641100       -1.6508573250       -1.1992710690
C                -0.6041347410       -0.6022683513       -0.2425471206
C                 0.2085719300        0.2418687316        0.4406978686
C                 1.6798793179        0.1888715222        0.4079632701
C                 2.3832389648        0.2165284069       -0.7929042585
C                 3.7661302878        0.1817039711       -0.7970620817
C                 4.4664484399        0.1177161209        0.3955483224
C                 3.7759198120        0.0969924006        1.5962812307
C                 2.3944050285        0.1387792032        1.6038076388
N                -0.3277645476        1.1540413046        1.3260555458
H                -2.7304343007        3.1681389931       -0.0160048361
H                -1.0875430825        3.6421755176        0.4371040561
H                -1.3457168276        2.4603926284       -0.8557821792
H                -2.0228313049        2.0431561713        2.0969282192
H                -3.5936053328        0.5880056401        0.8967265909
H                -3.8922926084       -1.3450019915       -0.6812468843
H                -2.9729563837       -2.3734738892        0.4281382669
H                -2.7797688102       -3.3658426600       -1.7839434911
H                -2.2764158684       -1.8066286761       -2.4924130067
H                -0.0054024802       -1.2084175904       -2.2108242435
H                 0.8877483110       -2.0168433837       -0.8953568417
H                 1.8432665597        0.2864145402       -1.7246965434
H                 4.2996234146        0.2068648238       -1.7360417211
H                 5.5458925744        0.0864538306        0.3899831301
H                 4.3167883256        0.0468144819        2.5301458308
H                 1.8564190494        0.1092258291        2.5403859817
H                 0.3262640451        1.8268509907        1.6980840360



