%chk=calculation/no_transfer_pubchem_sampling_2_b3lyp/69029023_rwf.chk
%rwf=calculation/no_transfer_pubchem_sampling_2_b3lyp/69029023_rwf.rwf
%nprocshared=14
%mem=3GB
#p b3lyp/6-31g(d) 6D 10F nosymm GFInput td=(50-50,nstate=2) SCF=XQC 

Gaussian input prepared by ASE

0 1
C                -1.7180455447        2.8392966807        0.1367353403
C                -1.6818063357        1.6619014404        1.1352067220
C                -2.5566426503        0.5133917007        0.6918298457
C                -2.0490771042       -0.5249668970        0.0011774490
C                -2.9150830062       -1.6946862312       -0.4305212759
C                -2.2934849866       -2.4486092870       -1.6055949913
O                -0.9558735113       -2.8075290831       -1.2954250439
C                -0.1151551628       -1.6596176321       -1.2402953654
C                -0.6071730216       -0.6111207169       -0.2608273859
C                 0.2156686412        0.2245214974        0.4403004691
C                 1.7003440095        0.1816624475        0.4152038734
C                 2.4198020663        0.1758727721       -0.7905498448
C                 3.8149696057        0.1507877505       -0.7894114313
C                 4.5177733560        0.1384976153        0.4158869479
C                 3.8147549530        0.1523879728        1.6228848141
C                 2.4214976870        0.1772154476        1.6237707394
N                -0.3250603525        1.1363873488        1.3483185040
H                -2.7432838193        3.2115054953        0.0219733004
H                -1.0918859381        3.6726570391        0.4829009585
H                -1.3593402694        2.5178907354       -0.8467835972
H                -2.0315333600        2.0335700789        2.1082612328
H                -3.6198232404        0.5700857917        0.9145388871
H                -3.9299159944       -1.3575006010       -0.6757754284
H                -3.0016856289       -2.4019500214        0.4058647245
H                -2.8295533918       -3.3817842713       -1.8048420085
H                -2.3197098506       -1.8356822496       -2.5239474605
H                -0.0470437155       -1.2381153715       -2.2617788324
H                 0.8791568967       -2.0259192418       -0.9724935262
H                 1.8833340674        0.2152241354       -1.7336256112
H                 4.3523293992        0.1501120794       -1.7340923242
H                 5.6042092450        0.1193110784        0.4157108484
H                 4.3528487213        0.1363173846        2.5670957595
H                 1.8789926750        0.1676441267        2.5650379273
H                 0.3354955608        1.8412429850        1.6532657841



