%chk=calculation/no_transfer_pubchem_sampling_2_b3lyp/70456824_rwf.chk
%rwf=calculation/no_transfer_pubchem_sampling_2_b3lyp/70456824_rwf.rwf
%nprocshared=14
%mem=3GB
#p b3lyp/6-31g(d) 6D 10F nosymm GFInput td=(50-50,nstate=2) SCF=XQC 

Gaussian input prepared by ASE

0 1
C                 5.5382506794       -2.3320813688        2.2678019137
C                 4.0631552426       -1.9992532687        2.4276301127
O                 3.7119323695       -0.7865269655        1.7104959205
C                 3.9019482781        0.3722116972        2.3722155184
O                 4.3909634999        0.4683128269        3.4748007634
C                 3.4886223166        1.5943155415        1.5552500386
N                 2.5715588561        1.3371111738        0.4469395854
C                 1.2615148819        1.0658835932        0.8013313160
O                 0.9379121037        1.0737923904        1.9828387352
C                 0.2881340384        0.6307447350       -0.3106114634
C                -0.7577193250       -0.3417319831        0.3283646275
C                -1.5162703006        0.2383636153        1.5215170857
O                -1.7624187205       -0.3780012174        2.5351352274
O                -1.9957396326        1.4853986103        1.2876574154
C                -2.6988476829        2.0993893605        2.3934627150
C                -3.1176306104        3.4908575801        1.9574876039
C                -1.7589267971       -1.0161788556       -0.6869431754
N                -1.1225169946       -1.5649273028       -1.8815668148
C                -2.5684874540       -2.1481135426        0.0012268762
C                -3.8588634944       -2.4903576220       -0.7153543559
C                -5.0863178522       -2.0799620711       -0.1767899884
C                -6.2911738128       -2.3713516131       -0.8192562070
C                -6.2878140038       -3.0849966925       -2.0180478756
C                -5.0721534113       -3.5017809759       -2.5652379926
C                -3.8701961142       -3.2079225281       -1.9208064538
C                -0.2984185956        1.8197877149       -1.1287564813
N                -0.6676973913        1.3839853953       -2.4582141061
S                 0.8737427936        3.3062047513       -1.1508348116
C                 2.3369441596        2.4618068448       -1.7281237344
C                 2.8403205465        2.7046155265       -3.0136573640
C                 4.0074670476        2.0798206753       -3.4544074998
C                 4.6709076617        1.1814019101       -2.6171499246
C                 4.1723682325        0.9134404997       -1.3433394038
C                 3.0152716214        1.5552945976       -0.8840195885
H                 5.7569887272       -3.2869657563        2.7593491849
H                 6.1597630074       -1.5596088126        2.7289504730
H                 5.8077167983       -2.4234767891        1.2100043656
H                 3.4256292064       -2.7669698600        1.9829901625
H                 3.7958554558       -1.8692308683        3.4785565333
H                 4.3963453453        2.0534884698        1.1546587290
H                 3.0352472360        2.2967446596        2.2584092175
H                 0.8697040645        0.0309793026       -1.0215259669
H                -0.1702801741       -1.1562396362        0.7696031244
H                -3.5580218642        1.4738018205        2.6545147408
H                -2.0271306055        2.1224041311        3.2565671926
H                -3.6568289416        3.9874625418        2.7716422770
H                -2.2449528883        4.1014818419        1.7032943466
H                -3.7794400732        3.4484563269        1.0857672160
H                -2.4583369505       -0.2484227999       -1.0338552193
H                -0.8218426775       -0.7951624958       -2.4753622845
H                -0.3110815285       -2.1301551798       -1.6329536842
H                -2.7954143503       -1.8763737172        1.0347040006
H                -1.9174084763       -3.0324570312        0.0541198478
H                -5.0973830858       -1.5302375649        0.7623785216
H                -7.2307448800       -2.0455471669       -0.3795700904
H                -7.2235892707       -3.3182639476       -2.5197788127
H                -5.0596773923       -4.0605423104       -3.4980745590
H                -2.9266158810       -3.5180548981       -2.3571980715
H                -1.1775855248        2.2111921420       -0.6200439406
H                -1.2437035828        2.0879412953       -2.9153913216
H                 0.1676855477        1.2722936597       -3.0339283332
H                 2.3170193260        3.4064633139       -3.6560423811
H                 4.3908254873        2.2888989558       -4.4489454239
H                 5.5714927004        0.6784084038       -2.9577518755
H                 4.6659431093        0.1981359372       -0.6926351827



