%chk=./calculation/no_transfer_pubchem_sampling_2_b3lyp/70456824.chk
%nprocshared=7
%mem=6GB
#p b3lyp/6-31g(d) opt SCF=XQC 

Gaussian input prepared by ASE

0 1
C                 4.5672270705       -2.5552375709        1.4138375116
C                 3.5572333254       -1.8938874370        2.3401840084
O                 3.1941277734       -0.5940981367        1.8665146055
C                 3.9709168592        0.4253362168        2.2215255141
O                 4.9728794994        0.3372741353        2.8782219413
C                 3.4093186239        1.7457845722        1.7029002156
N                 2.5131213539        1.5564563445        0.5852212696
C                 1.1937918841        1.3260484257        0.8563820044
O                 0.7227329711        1.5418666120        1.9516448244
C                 0.3933693560        0.6670584020       -0.2684729136
C                -0.5490179951       -0.3552831210        0.4041959095
C                -1.2823119435        0.2358300825        1.6008219602
O                -1.3269778526       -0.2944423695        2.6804843325
O                -1.9897064830        1.3204352541        1.2771227974
C                -2.6701951135        1.9661720272        2.3552291039
C                -3.2441676739        3.2725981185        1.8405602038
C                -1.5850772669       -1.0094435783       -0.5570439771
N                -0.9996074288       -1.6087455617       -1.7332748980
C                -2.3797819014       -2.0999145159        0.1883492440
C                -3.6211069951       -2.4481654294       -0.5796212886
C                -4.8017323056       -1.7533211163       -0.3496091355
C                -5.9452283337       -2.0443649463       -1.0714617665
C                -5.9207880422       -3.0344270547       -2.0388878848
C                -4.7470040785       -3.7274746131       -2.2798593671
C                -3.6052061502       -3.4353296802       -1.5551414964
C                -0.3030417033        1.7299223519       -1.1184845721
N                -0.5958870859        1.2632559775       -2.4259265446
S                 0.8021074396        3.2564496007       -1.1593515906
C                 2.3105650151        2.4500042673       -1.6489904097
C                 2.8151122199        2.6276881915       -2.9268901517
C                 4.0192530027        2.0462013166       -3.2851643518
C                 4.7235384032        1.2917196985       -2.3612847590
C                 4.2275436619        1.1107471027       -1.0823197302
C                 3.0123772218        1.6782406973       -0.7156561430
H                 4.7666632062       -3.5659921140        1.7571503280
H                 5.4992380206       -1.9947763846        1.4179787635
H                 4.1807301087       -2.5958511551        0.3976871238
H                 2.6202409306       -2.4529296635        2.3739523332
H                 3.9711865290       -1.7995210045        3.3485699517
H                 4.2291593149        2.4165318591        1.4400099862
H                 2.8298310715        2.1893954625        2.5216683272
H                 1.0908656709        0.1225754868       -0.9171257405
H                 0.0850931008       -1.1522818264        0.8124984542
H                -3.4572464981        1.2998820699        2.7269117389
H                -1.9499008724        2.1330273432        3.1624655249
H                -3.7677056084        3.7830251424        2.6435976460
H                -2.4441774880        3.9121193992        1.4764658445
H                -3.9399560439        3.0842917114        1.0265225621
H                -2.2785627766       -0.2348574912       -0.8980353187
H                -0.6997934492       -0.8942661706       -2.3845689709
H                -0.2126539361       -2.1984661216       -1.4859371234
H                -2.6469825566       -1.7496668436        1.1845866860
H                -1.7426332546       -2.9798925810        0.2934895109
H                -4.8242677434       -0.9807642361        0.4064979774
H                -6.8583368658       -1.4995228142       -0.8783633757
H                -6.8136600854       -3.2646921082       -2.6018466454
H                -4.7223716849       -4.4999168794       -3.0351246815
H                -2.6893093035       -3.9721945009       -1.7491469288
H                -1.2074750353        2.0863695581       -0.6277801096
H                -1.2242453645        1.8805424374       -2.9236713933
H                 0.2460509737        1.1308851854       -2.9782166589
H                 2.2667604975        3.2404424034       -3.6261544809
H                 4.4091893409        2.1892874956       -4.2809126105
H                 5.6663754341        0.8436425651       -2.6351090743
H                 4.7795170394        0.5286165114       -0.3603231121



