%chk=calculation/no_transfer_pubchem_sampling_2_b3lyp/71101820_rwf.chk
%rwf=calculation/no_transfer_pubchem_sampling_2_b3lyp/71101820_rwf.rwf
%nprocshared=14
%mem=3GB
#p b3lyp/6-31g(d) 6D 10F nosymm GFInput td=(50-50,nstate=2) SCF=XQC 

Gaussian input prepared by ASE

0 1
C                 1.6170562381       -4.8354818354       -0.2336603367
C                 1.0374383396       -3.5476975049       -0.8383656726
C                 1.1355964415       -3.5567986777       -2.3682731976
C                 1.7660463636       -2.3382522491       -0.2229302155
N                 1.2028096922       -1.0271574480       -0.6088756650
C                 0.0794924280       -0.4834779920        0.1776762650
C                -1.3147154928       -0.8166168536       -0.4066533209
O                -1.7858760398       -2.0862826807        0.0042395806
C                -2.3611935114        0.2966083694       -0.1156556083
C                -2.2587560124        1.4894490643       -1.0969946585
C                -2.6659412705        1.1538767740       -2.5179048775
C                -1.7067552866        1.0165172679       -3.5301671278
C                -2.0930666896        0.7066216831       -4.8363729054
C                -3.4412373609        0.5313600173       -5.1492037706
C                -4.4053650617        0.6691313403       -4.1479065842
C                -4.0185085252        0.9793062312       -2.8447579054
N                -2.2901879937        0.8439497940        1.2510890588
C                -2.3878014219        0.1457539117        2.3994757209
O                -2.3854493177       -1.0889560008        2.4909813201
C                -2.5334660650        1.0000700232        3.6722777231
C                -3.9881337161        0.9197448157        4.1533086135
N                -2.1599300683        2.3994273722        3.4172066497
S                 2.2203905529        0.0776353350       -1.3563226997
O                 3.0516574595       -0.6741012232       -2.2983959731
O                 1.3638208719        1.1889391598       -1.7980986273
C                 3.3260368638        0.7531283678       -0.1062296294
C                 4.5428453512        0.1153057633        0.1397251762
C                 5.4091154832        0.5867443641        1.1406058607
C                 4.9964407744        1.6957497817        1.8537081155
C                 3.7816407043        2.3325949962        1.5949758740
C                 2.9164399832        1.8927929327        0.6167612422
O                 3.6282648170        3.3973339274        2.4494563062
C                 4.8701532027        3.5114195287        3.1544420437
O                 5.6457614187        2.3382539344        2.8737649806
H                 1.5174386626       -4.8519847323        0.8589618460
H                 1.0967574715       -5.7158115274       -0.6272187437
H                 2.6828861309       -4.9467159363       -0.4759087059
H                -0.0184370476       -3.4744773919       -0.5546195432
H                 0.5752084594       -4.4029535875       -2.7829631572
H                 2.1779220603       -3.6434240311       -2.7005544344
H                 0.7293179411       -2.6371818852       -2.7995802330
H                 1.7448779421       -2.4102559901        0.8743025710
H                 2.8144256818       -2.3648145731       -0.5335907057
H                 0.1388969908       -0.8839892530        1.1969143842
H                 0.1944940646        0.5997223025        0.2439171239
H                -1.2162037823       -0.8775403300       -1.4937849851
H                -2.0454808324       -1.9859806499        0.9475759650
H                -3.3394499416       -0.1840423287       -0.2465512760
H                -1.2351920048        1.8812209810       -1.0897426819
H                -2.9118342482        2.2894947904       -0.7198853684
H                -0.6548766891        1.1515424048       -3.2913080646
H                -1.3357125499        0.6035123883       -5.6090465383
H                -3.7407800967        0.2911865666       -6.1659797888
H                -5.4587343866        0.5390454231       -4.3826659310
H                -4.7767500008        1.0928814763       -2.0720119163
H                -2.3503039440        1.8514130347        1.3820638591
H                -1.8957125476        0.5112569976        4.4235126966
H                -4.6564190730        1.4107699456        3.4369438464
H                -4.0995515972        1.4129927527        5.1262517513
H                -4.2903479118       -0.1250765154        4.2581866747
H                -1.1500642452        2.5175660237        3.4767236390
H                -2.5677802295        3.0077643295        4.1238973233
H                 4.8329288457       -0.7304891875       -0.4727434846
H                 6.3628514562        0.1103822516        1.3383419464
H                 1.9932085047        2.4090435690        0.3851120514
H                 5.4125484683        4.3995302788        2.8035818804
H                 4.6752422953        3.5685161136        4.2289412443



