%chk=./calculation/no_transfer_pubchem_sampling_2_b3lyp/71101820.chk
%nprocshared=7
%mem=6GB
#p b3lyp/6-31g(d) opt SCF=XQC 

Gaussian input prepared by ASE

0 1
C                 1.6176155133       -4.5239622780       -1.3634006295
C                 0.8737961171       -3.1965459370       -1.4874725917
C                 0.4454012740       -2.9518243725       -2.9306944621
C                 1.7811720324       -2.0571452436       -1.0064558846
N                 1.0971890404       -0.7849125208       -0.9600902591
C                 0.1924489041       -0.5539309349        0.1405543467
C                -1.2750896652       -0.9282402925       -0.1717926805
O                -1.6983040377       -2.0490755441        0.5482468452
C                -2.2234693962        0.2796621446        0.0393781440
C                -2.1827746420        1.2372060242       -1.1596127093
C                -2.5493069232        0.5526487166       -2.4475541043
C                -1.5787727250        0.3236756478       -3.4153954399
C                -1.9050203770       -0.3220277842       -4.5957251386
C                -3.2036152947       -0.7461445173       -4.8208913890
C                -4.1772919056       -0.5157590244       -3.8638556754
C                -3.8516525021        0.1311104016       -2.6851052766
N                -1.9127552799        1.0559956711        1.2312686204
C                -1.6491896880        0.6107235880        2.4624907256
O                -1.6040184600       -0.5611691366        2.8042669411
C                -1.4461693666        1.7466698509        3.4721998181
C                -2.8151558312        2.0802528203        4.0675043939
N                -0.8979651081        2.9181370615        2.7968539879
S                 1.9894456785        0.5554126297       -1.3630440069
O                 2.9186967005        0.1966577331       -2.3896277085
O                 1.0689413227        1.6269639905       -1.6183999755
C                 2.8683953643        0.9507997659        0.1532676657
C                 3.9793779828        0.2144081751        0.5053253707
C                 4.5928792438        0.3951151055        1.7444303118
C                 4.0231425723        1.3152374203        2.5938504021
C                 2.8951506706        2.0568313857        2.2255653434
C                 2.3006831392        1.9002613225        0.9989625357
O                 2.5336029944        2.8773784253        3.2598541122
C                 3.4871048331        2.6553332620        4.2805713249
O                 4.4012853893        1.6669639753        3.8555858377
H                 1.8930733299       -4.7194263297       -0.3294899062
H                 0.9868638140       -5.3391229990       -1.7081802249
H                 2.5235579004       -4.5107969834       -1.9662105995
H                -0.0123472994       -3.2284762563       -0.8481254425
H                -0.2704218312       -3.7059651058       -3.2488435180
H                 1.3092658190       -2.9888747454       -3.5912382960
H                -0.0149207340       -1.9725370442       -3.0281295040
H                 2.1893198585       -2.3027629077       -0.0139981435
H                 2.6056404682       -1.9302424214       -1.7100483109
H                 0.5160889174       -1.1186851454        1.0245924342
H                 0.2473773306        0.5081398600        0.3754587148
H                -1.3469779249       -1.2133525123       -1.2252351352
H                -1.7406274310       -1.7856197821        1.4922412002
H                -3.2335283888       -0.1419086966        0.1478457865
H                -1.1753073123        1.6466216335       -1.2525838157
H                -2.8827826701        2.0560764923       -0.9702963850
H                -0.5667190374        0.6574201609       -3.2364947870
H                -1.1423277053       -0.4955817187       -5.3405408534
H                -3.4577880701       -1.2517895884       -5.7408298181
H                -5.1932337851       -0.8398358108       -4.0369695854
H                -4.6174825861        0.3133286373       -1.9444578250
H                -1.8337797102        2.0616208703        1.1266919254
H                -0.7969888546        1.3577891129        4.2731887843
H                -3.4645707424        2.4859241895        3.2952558605
H                -2.7140961346        2.8155017529        4.8636152862
H                -3.2693050118        1.1821430582        4.4772002650
H                 0.1026625982        2.8185809174        2.6617020768
H                -1.0409472150        3.7464066891        3.3647066142
H                 4.3773325070       -0.4926541779       -0.2037363184
H                 5.4673643412       -0.1622254131        2.0334826721
H                 1.4576284329        2.4856339674        0.6733073118
H                 4.0270542318        3.5918931239        4.4908554506
H                 2.9751423244        2.3160656411        5.1942042905



