%chk=./calculation/no_transfer_pubchem_sampling_2_b3lyp/71701706.chk
%nprocshared=7
%mem=6GB
#p b3lyp/6-31g(d) opt SCF=XQC 

Gaussian input prepared by ASE

0 1
C                -5.8195545983        2.7367241616        0.4916291184
O                -4.4654818967        2.3253626598        0.4180183688
C                -4.1836394529        1.4006382211       -0.4955530356
O                -5.0095120279        0.9201935788       -1.2397599093
C                -2.7524087609        1.0484967767       -0.4777606266
N                -1.9358473010        1.6566100327        0.4308914688
C                -0.7294212617        1.2648086321        0.3385869198
N                 0.3483506921        1.6660713863        1.0695784439
C                 0.3321731925        2.4305669893        2.2110626668
O                -0.6439646238        2.8930524079        2.7318064714
C                 1.7557667699        2.6607754637        2.7339784570
C                 2.5476834117        1.4000739915        2.8430484033
C                 3.1432541808        0.9185565164        3.9709427587
S                 3.9506797646       -0.5628589996        3.6522609886
C                 3.4203564920       -0.4465180343        1.9850729919
C                 3.7227788589       -1.4592329087        1.0002008746
C                 3.1480487888       -1.3807002845       -0.2719871392
C                 3.4178862630       -2.3436879219       -1.2217340196
C                 4.2688970733       -3.3862598377       -0.8943956531
F                 4.5361437012       -4.3269682698       -1.8181617503
C                 4.8528183868       -3.4894299469        0.3571875941
C                 4.5749444321       -2.5229108355        1.3018450491
N                 2.7221373143        0.6177707732        1.7471549681
S                -0.4536815357        0.0534610694       -0.9375550051
C                -2.1455886402        0.1465137197       -1.3155339521
C                -2.7316030045       -0.6808136548       -2.4068452874
C                -2.0587775045       -0.3502661302       -3.7406041195
C                -2.5774568544       -2.1676424659       -2.0779847876
H                -6.1351862953        3.1817954554       -0.4550236419
H                -5.8688394140        3.4681184438        1.2938574606
H                -6.4666019932        1.8833580920        0.7078580520
H                 1.2474352263        1.2218467255        0.8566247838
H                 1.6893401474        3.1530834855        3.7034310628
H                 2.2484151910        3.3368252767        2.0288289928
H                 3.1524438939        1.3431564650        4.9535940179
H                 2.4849119987       -0.5630602064       -0.5043392626
H                 2.9788759775       -2.2978947359       -2.2054169473
H                 5.5102643236       -4.3156812370        0.5757218785
H                 5.0215922828       -2.5876055743        2.2830436248
H                -3.7949478344       -0.4330157554       -2.4656388951
H                -2.5135821250       -0.9300508657       -4.5394978349
H                -0.9967970225       -0.5872244951       -3.6976543712
H                -2.1713297667        0.7062597898       -3.9728433694
H                -3.0339385415       -2.7697115326       -2.8592396952
H                -3.0634554447       -2.4006730759       -1.1334126696
H                -1.5235884632       -2.4319143456       -2.0033234439



