%chk=./calculation/no_transfer_pubchem_sampling_2_b3lyp/72188313.chk
%nprocshared=7
%mem=6GB
#p b3lyp/6-31g(d) opt SCF=XQC 

Gaussian input prepared by ASE

0 1
C                 3.5270588429       -2.8140866826       -1.0275779484
C                 2.9670553587       -1.5040588664       -0.5577970238
C                 1.6582586936       -1.2253619690       -0.8127461143
N                 1.1434733966       -0.0228252031       -0.4893050272
N                -0.1052529621        0.3986876950       -0.6687113575
C                -0.1187783761        1.6594757846       -0.2382891193
C                -1.3683235574        2.4899715178       -0.2493214673
C                -1.3256482802        3.5648609591       -1.3352771680
C                -1.2517594231        2.9414743461       -2.7317522134
C                -2.0582082978        1.6382797985       -2.7880973376
C                -3.1591138635        1.6281921526       -1.7317749308
N                -2.5599948406        1.6641614628       -0.4145183797
C                -2.9573008139        0.9509545806        0.6475266172
O                -2.3957733092        1.0270993538        1.7332439410
C                -4.1983222220        0.0640009929        0.4997446427
N                -4.6173326840       -0.3993074668        1.8066611866
S                -5.7449068873        0.5324317768        2.5826840494
C                -4.9366204196        2.0732472755        3.1028889309
O                -6.1424972573       -0.1820916040        3.7574180888
O                -6.7463513257        0.8632868437        1.6074945538
C                -3.9828916257       -1.1467258729       -0.3863615257
C                -5.0996545388       -1.8540339514       -0.8166465368
C                -4.9498854140       -2.9933777819       -1.5855591745
C                -3.6829309985       -3.4355474888       -1.9302552111
C                -2.5699725200       -2.7357001373       -1.4987350436
C                -2.7134046812       -1.5970365405       -0.7229370834
C                 1.1381053738        2.0703271803        0.2131163295
C                 1.9587823300        0.9635539670        0.0488804727
N                 3.2383565076        0.7298858471        0.3190160808
C                 3.7482252402       -0.4647743097        0.0716367209
N                 5.0636410151       -0.5926511823        0.3774976731
C                 5.7553413148        0.5799192808        0.8905691401
C                 7.1496366442        0.0714478816        1.2205137658
C                 6.8820516580       -1.3565578354        1.6994436072
N                 8.0469971670       -2.2046092703        1.5341756601
C                 5.7492108807       -1.8103673557        0.7632990572
H                 2.8187093428       -3.2870149302       -1.7041912811
H                 3.7065405284       -3.4996923539       -0.2020292683
H                 4.4618221465       -2.6609827083       -1.5602950713
H                 0.9876141670       -1.9246526599       -1.2901333865
H                -1.4423817523        2.9707188758        0.7360818434
H                -0.4616183060        4.2066479772       -1.1617387604
H                -2.2214747356        4.1819066447       -1.2446879697
H                -0.2121319841        2.7326518620       -2.9864510516
H                -1.6324682734        3.6588241235       -3.4608761448
H                -1.4057845626        0.7895480200       -2.5824822454
H                -2.5003695443        1.5016301699       -3.7749482431
H                -3.8205392879        2.4948675150       -1.8616764207
H                -3.7532164635        0.7219705338       -1.8394236295
H                -5.0418345828        0.6546111466        0.1244802670
H                -3.8361503697       -0.6219024703        2.4088105696
H                -5.0787559064        2.8047320829        2.3189756135
H                -5.4189724436        2.3875492321        4.0182380618
H                -3.8847194714        1.8756658042        3.2650851509
H                -6.0813892228       -1.5041444178       -0.5344246343
H                -5.8217339338       -3.5379231466       -1.9166445894
H                -3.5649022194       -4.3247311425       -2.5322947719
H                -1.5814608064       -3.0809742847       -1.7650845564
H                -1.8396924292       -1.0488182442       -0.4011994684
H                 1.4096051377        3.0209535846        0.6190157121
H                 5.2421565867        0.9615155019        1.7812316457
H                 5.7436878256        1.3690253598        0.1374441583
H                 7.7699019149        0.0250925181        0.3255720315
H                 7.6483669161        0.6821573690        1.9697451187
H                 6.5074667924       -1.3268990728        2.7385671622
H                 8.8261613582       -1.8402086991        2.0708930229
H                 7.8553440666       -3.1441362774        1.8646227044
H                 6.2064026813       -2.3011178787       -0.1026378906
H                 5.0745427061       -2.5090172135        1.2611684662



