%chk=calculation/no_transfer_pubchem_sampling_2_b3lyp/72203129_rwf.chk
%rwf=calculation/no_transfer_pubchem_sampling_2_b3lyp/72203129_rwf.rwf
%nprocshared=14
%mem=3GB
#p b3lyp/6-31g(d) 6D 10F nosymm GFInput td=(50-50,nstate=2) SCF=XQC 

Gaussian input prepared by ASE

0 1
C                 7.9098759147        0.0707535727        0.3734326732
C                 6.6865246081        0.9483711031        0.5746325734
O                 6.7489322489        2.0358813235        1.1400665459
N                 5.5212712189        0.4576805293        0.0517895590
C                 4.2598969501        1.1370092119        0.2388425379
C                 3.7637132807        1.9366567222       -0.9938449668
S                 4.9971697377        3.1108921532       -1.6892887178
C                 3.2022770359        0.0967599559        0.5974130582
O                 3.3249654222       -1.0945944343        0.4145061201
O                 2.1071996200        0.6812863883        1.1297137885
C                 0.9717890031       -0.1656765831        1.3174518425
C                 0.1651951206       -0.2506504861        0.0076296276
O                 0.7008786711        0.0982264197       -1.0249206377
C                -1.3111749784       -0.6947434552        0.1341061267
C                -2.1047867298        0.6100635949        0.5285449127
C                -2.0395038540        1.8082426535       -0.4737514526
C                -1.0065473249        2.8612479573       -0.0432979685
N                -3.3398688708        2.4544175203       -0.7249911994
C                -4.2370916043        1.6725216697       -1.5621058931
C                -4.0276424829        2.9750221270        0.4470222524
C                -1.9481302908       -1.2924821636       -1.1470866838
C                -3.2036580785       -1.9124348788       -1.0042008216
C                -3.8759595655       -2.4576540463       -2.0946116357
C                -3.3059343893       -2.4038763763       -3.3683388197
C                -2.0625882495       -1.7981176570       -3.5265005764
C                -1.3889869023       -1.2439166684       -2.4322044668
C                -1.3762819894       -1.7676542341        1.2490422587
C                -2.0495868189       -1.5956439167        2.4644253065
C                -2.0597202543       -2.6091386106        3.4291110274
C                -1.3912582761       -3.8089297057        3.1991711398
C                -0.7156802702       -3.9954312355        1.9896842497
C                -0.7149320703       -2.9892026797        1.0278226974
H                 8.4854938469        0.0519191413        1.3023132035
H                 8.5424092078        0.5209692333       -0.3993532279
H                 7.6686559819       -0.9535364435        0.0728424038
H                 5.4735720722       -0.4931773433       -0.2894223784
H                 4.3842350548        1.8327467735        1.0744754992
H                 2.8501557078        2.4681231981       -0.7188032157
H                 3.5150082103        1.2548844901       -1.8126091456
H                 5.5138499663        3.5148508453       -0.5094115800
H                 1.2917199883       -1.1655678050        1.6191861404
H                 0.3854666676        0.2774879529        2.1243660134
H                -1.7707202633        0.9511886468        1.5158195160
H                -3.1476554725        0.2994456487        0.6500455028
H                -1.7214805185        1.4223913022       -1.4482724317
H                -1.0063861218        3.6902889381       -0.7569959230
H                -1.2242037674        3.2675250721        0.9514709052
H                 0.0011574975        2.4373009388       -0.0110169547
H                -5.0840678520        2.3002802253       -1.8636926879
H                -4.6505882405        0.7710663544       -1.0700809075
H                -3.7139095826        1.3461647618       -2.4663392811
H                -3.3647204020        3.6205677558        1.0298780261
H                -4.4281075742        2.1935394139        1.1232530628
H                -4.8774724098        3.5847581376        0.1192473035
H                -3.6571759918       -1.9849830879       -0.0198079677
H                -4.8432175778       -2.9306477726       -1.9461037342
H                -3.8247699035       -2.8312463059       -4.2222002521
H                -1.6011915831       -1.7483678403       -4.5094541437
H                -0.4291858875       -0.7728572362       -2.5858767114
H                -2.5816012986       -0.6746098665        2.6753061841
H                -2.5941724595       -2.4518563801        4.3622357543
H                -1.3974273920       -4.5936984548        3.9504861329
H                -0.1926698267       -4.9273972837        1.7933067727
H                -0.2013549077       -3.1524397816        0.0832256643



