%chk=calculation/no_transfer_pubchem_sampling_2_b3lyp/73973968_rwf.chk
%rwf=calculation/no_transfer_pubchem_sampling_2_b3lyp/73973968_rwf.rwf
%nprocshared=14
%mem=3GB
#p b3lyp/6-31g(d) 6D 10F nosymm GFInput td=(50-50,nstate=2) SCF=XQC 

Gaussian input prepared by ASE

0 1
C                -6.2832115545        1.5176362367       -0.3486756980
C                -6.3228891292        0.0918632606        0.1631379259
C                -7.5682238097       -0.5049332900        0.3854283431
C                -7.6648412917       -1.8062939708        0.8742635029
C                -6.5050545902       -2.5205310639        1.1507827751
C                -5.2364961587       -1.9595912887        0.9403493090
C                -4.0252275165       -2.8136220429        1.2638854144
C                -5.1401819905       -0.6414170929        0.4354698134
C                -3.7797439774       -0.0043511544        0.2068154061
C                -2.9629542684       -0.5620527174       -1.0001281747
N                -1.6229895079       -0.0030229488       -1.0223089742
C                -0.6524374226       -0.3840280878       -0.1611139843
O                -0.8297953662       -1.2077951358        0.7393964750
C                 0.7013269941        0.3266921852       -0.3249878358
C                 0.6538824219        1.6891591433        0.4312358311
C                 1.9198725748        2.5039097983        0.2929314215
C                 2.0662970598        3.4196472559       -0.7575998773
C                 3.2389576456        4.1599162456       -0.9048658956
C                 4.2885462245        3.9945105736        0.0008806986
C                 4.1549940123        3.0866613456        1.0526792722
C                 2.9783893843        2.3501594838        1.1975198951
N                 1.7283915196       -0.5521110564        0.1930843103
C                 2.8343564229       -0.8729198647       -0.5380579938
O                 3.1597856215       -0.3504872583       -1.5919811580
O                 3.5300680133       -1.8563864714        0.0948643883
C                 4.7786532786       -2.2539606822       -0.5243127868
C                 5.9603138541       -1.5281008557        0.0735397932
C                 6.2263961267       -0.1945392559       -0.2713752976
C                 7.3152431603        0.4728698268        0.2883655924
C                 8.1543689195       -0.1825594865        1.1934862944
C                 7.8975724403       -1.5095297579        1.5400268202
C                 6.8039466875       -2.1752709237        0.9832326424
C                -3.5903602503       -0.2180006400       -2.3624817152
N                -4.7119465308       -0.9144042802       -2.6860741217
O                -3.0819115739        0.6143029062       -3.1074491454
H                -5.8237982793        2.2001368528        0.3774446931
H                -5.7156813317        1.6133794761       -1.2815584754
H                -7.2964064656        1.8829431191       -0.5412809958
H                -8.4717366480        0.0631854314        0.1777945964
H                -8.6395634425       -2.2555130370        1.0454260578
H                -6.5728732475       -3.5319679946        1.5451258508
H                -3.1074324017       -2.2428583111        1.4200417171
H                -3.8197942615       -3.5296528028        0.4559248826
H                -4.2117763433       -3.4075636046        2.1652759145
H                -3.8712061840        1.0758748002        0.0720352542
H                -3.1454504184       -0.1565438135        1.0849277162
H                -2.8896640325       -1.6503625540       -0.9021795472
H                -1.4351758283        0.6116663984       -1.8090531769
H                 0.9229722292        0.5098844329       -1.3806375631
H                 0.4495930000        1.4742880557        1.4871462723
H                -0.2018927628        2.2595069479        0.0489928482
H                 1.2521174606        3.5559785895       -1.4668007418
H                 3.3317794130        4.8671501595       -1.7249876285
H                 5.2021130637        4.5728149811       -0.1102787298
H                 4.9661638589        2.9499179843        1.7628256170
H                 2.8805707812        1.6453544909        2.0189006015
H                 1.4328866169       -1.1897364342        0.9237118937
H                 4.7007820723       -2.0727842391       -1.5983831434
H                 4.8486071888       -3.3284763173       -0.3383846782
H                 5.5708794222        0.3131035113       -0.9727170636
H                 7.5119109348        1.5057454347        0.0128713916
H                 9.0055225595        0.3384477474        1.6244369523
H                 8.5460516374       -2.0262692531        2.2427948233
H                 6.6042164622       -3.2092606431        1.2565759090
H                -5.2241118803       -1.4275844910       -1.9809400422
H                -5.2127035969       -0.6222258532       -3.5150154718



