%chk=./calculation/no_transfer_pubchem_sampling_2_b3lyp/7978193.chk
%nprocshared=7
%mem=6GB
#p b3lyp/6-31g(d) opt SCF=XQC 

Gaussian input prepared by ASE

0 1
C                 4.2214473889       -2.7508519156       -1.8732439246
C                 3.1596551961       -1.7429801525       -1.4350428158
O                 3.6102301778       -1.1496870910       -0.2381471428
C                 2.7864535653       -0.2909040341        0.4194870429
C                 1.7080167693        0.3721551393       -0.1616723968
C                 0.9460573527        1.2457186148        0.5865918785
C                 1.2363716146        1.4584062007        1.9320412257
C                 0.4226553487        2.3309644145        2.6848078465
N                -0.2387337788        3.0546440448        3.2806758908
C                 2.3251447824        0.8049493555        2.5147162559
C                 3.0937683401       -0.0520717978        1.7615805175
C                 1.8517651038       -2.4925679030       -1.1749886507
O                 1.4953198365       -2.8719610484       -0.0972459892
O                 1.1641550952       -2.6891745884       -2.3098305150
C                -0.0309367237       -3.4615873489       -2.1648956152
C                -1.0282284531       -2.8070867821       -1.1893655125
O                -1.6761550191       -3.4566271969       -0.4085081635
N                -1.0849574930       -1.4636679333       -1.3574482660
C                -1.7053438012       -0.5146997640       -0.5244543273
C                -1.9682151177       -0.7841982011        0.8122629941
C                -2.4968318786        0.2030284030        1.6298887200
C                -2.7566104088        1.4530380841        1.1061174690
C                -2.5092761222        1.7156925757       -0.2401363755
C                -1.9850668410        0.7418202523       -1.0630696712
C                -2.8741595562        3.1318902005       -0.5739007448
C                -2.9548137285        3.8048650877        0.8058083091
C                -3.2889543223        2.6740776322        1.7919332799
H                 5.1668293596       -2.2360827398       -2.0207022927
H                 4.3501328798       -3.5023003451       -1.0986140310
H                 3.9194711128       -3.2288459958       -2.8006881553
H                 3.0089904221       -0.9956488012       -2.2275571547
H                 1.4571554080        0.2213448075       -1.2003945930
H                 0.1147036974        1.7633508506        0.1344529662
H                 2.5546175286        0.9711443522        3.5565886731
H                 3.9366913383       -0.5686022978        2.1915366935
H                 0.2069126625       -4.4572410868       -1.7810947396
H                -0.4580281170       -3.5371743364       -3.1665206332
H                -0.6127373615       -1.0805649405       -2.1654628881
H                -1.7458859053       -1.7605157726        1.2082655173
H                -2.6841790191       -0.0051758178        2.6721533376
H                -1.7756385063        0.9479817880       -2.1045617666
H                -3.8463473620        3.1498458583       -1.0750254811
H                -2.1506267249        3.6125521261       -1.2334189025
H                -3.6883183751        4.6087193628        0.8307556400
H                -1.9811952901        4.2230483143        1.0654993445
H                -2.8265547386        2.8313948384        2.7655490853
H                -4.3687523367        2.5795845875        1.9352800611



