%chk=calculation/no_transfer_pubchem_sampling_2_b3lyp/81236414_rwf.chk
%rwf=calculation/no_transfer_pubchem_sampling_2_b3lyp/81236414_rwf.rwf
%nprocshared=14
%mem=3GB
#p b3lyp/6-31g(d) 6D 10F nosymm GFInput td=(50-50,nstate=2) SCF=XQC 

Gaussian input prepared by ASE

0 1
C                -2.6348043868       -1.8121897180       -1.9910666104
C                -2.7925642820       -2.2101746027       -0.5102384970
C                -3.2348356578       -1.0694442641        0.3881629452
C                -4.5792975676       -0.9771177980        0.7609735190
C                -5.0554731041        0.0622509032        1.5586286325
C                -4.1639919502        1.0369092674        2.0019944762
C                -2.8156056397        0.9770135378        1.6558239770
C                -2.3431494589       -0.0694512349        0.8481076708
N                -0.9810582495       -0.1851476731        0.4853171481
C                 0.0630092942        0.6890561915        0.6938249374
O                -0.0986119868        1.8066891630        1.2034983543
C                 1.3976703554        0.2102408237        0.2402071413
C                 1.6972613377       -1.1505925082        0.0850966893
N                 2.8489107472       -1.6600171958       -0.3428537999
C                 3.8231015693       -0.7749622425       -0.6511763386
C                 5.1107381623       -1.3696699023       -1.1618626382
C                 3.6723286882        0.5966040409       -0.4980001925
C                 2.4555939560        1.1395354060       -0.0232581796
N                 2.2895852991        2.4726188584        0.1569061894
C                 3.3258673460        3.4595097508       -0.0539241881
H                -2.3248902031       -2.6726567683       -2.5947436730
H                -3.5841633995       -1.4387967832       -2.3891725000
H                -1.8907830788       -1.0190913419       -2.1267513913
H                -1.8569113570       -2.6613274568       -0.1461390650
H                -3.5363469079       -3.0117979996       -0.4396018827
H                -5.2656112135       -1.7462806871        0.4132324236
H                -6.1062602044        0.1057089917        1.8306980531
H                -4.5120276297        1.8551373185        2.6268429789
H                -2.1230069433        1.7334356008        1.9941881308
H                -0.7551607015       -0.9976564052       -0.0662451236
H                 0.9513278474       -1.8957024228        0.3644734616
H                 5.8588557986       -0.6025440455       -1.3821163501
H                 5.5249989740       -2.0651054137       -0.4231413242
H                 4.9231912624       -1.9497143577       -2.0728283988
H                 4.5006032378        1.2545201019       -0.7350766905
H                 1.4286818097        2.7324265624        0.6293368509
H                 3.6674014996        3.4711457678       -1.0971949919
H                 4.2009699440        3.2921873402        0.5907071399
H                 2.9144537932        4.4444501954        0.1773711164



