%chk=./calculation/no_transfer_pubchem_sampling_2_b3lyp/81741331.chk
%nprocshared=7
%mem=6GB
#p b3lyp/6-31g(d) opt SCF=XQC 

Gaussian input prepared by ASE

0 1
C                -2.4379261109       -1.3730627115       -0.9011883036
C                -3.0364209483       -0.2627882148       -0.0981708982
C                -4.2851982369       -0.4006173690        0.4959056031
C                -4.8110941837        0.6528352393        1.2260855785
N                -4.1823917060        1.8030323597        1.3903401004
C                -2.9969279499        1.9422650896        0.8264852442
C                -2.3710239052        0.9564569080        0.0733967640
C                -1.0035737537        1.1894227619       -0.5061957379
N                -0.0358696558        0.3991317841        0.2252201720
C                 1.2615533124        0.2182259993       -0.1353707908
C                 1.7577487682        0.6923594867       -1.3596156131
C                 3.0597079415        0.4609288125       -1.7327947498
C                 3.9016110299       -0.2501445452       -0.8834023764
N                 5.2514641206       -0.4942561720       -1.2580544226
O                 5.6317663819       -0.0692214900       -2.3348783230
O                 5.9574212945       -1.1162960063       -0.4835213812
C                 3.4256398547       -0.7233208347        0.3397970987
C                 2.1250613790       -0.5030114795        0.7262919070
C                 1.6260530848       -1.0228238520        2.0429523253
H                -2.3637352694       -1.0799912029       -1.9484320350
H                -1.4340936507       -1.6079753953       -0.5525586160
H                -3.0531973537       -2.2666023484       -0.8382025075
H                -4.8402997002       -1.3203772981        0.3900991253
H                -5.7787835813        0.5755007403        1.7031061247
H                -2.5174642624        2.9007156722        0.9834094101
H                -0.9908584350        0.8818065459       -1.5567806287
H                -0.7581847078        2.2600972730       -0.4562346074
H                -0.2712440196        0.2187630893        1.1880448059
H                 1.1161266219        1.2549287196       -2.0174420662
H                 3.4439636615        0.8261569928       -2.6722386748
H                 4.1035824508       -1.2697099661        0.9780577713
H                 2.4176478788       -1.5631170210        2.5538258973
H                 0.7856604593       -1.7030705274        1.9013905715
H                 1.3032811906       -0.2062430402        2.6906732327



