%chk=./calculation/no_transfer_pubchem_sampling_2_b3lyp/8340475.chk
%nprocshared=7
%mem=6GB
#p b3lyp/6-31g(d) opt SCF=XQC 

Gaussian input prepared by ASE

0 1
C                -3.7737254381        2.9863702294        1.5727043804
C                -2.4057987060        2.6877089823        0.9707035416
C                -2.4151182492        2.0366576902       -0.4229778105
C                -3.3377154132        2.7224001725       -1.4240979876
N                -2.6457518303        0.5867335570       -0.3394620309
C                -1.5666866690       -0.2505598567       -0.2782655804
S                 0.0453385837        0.4624435756       -0.2525813521
C                 1.0398673925       -1.0863997258       -0.1317522620
C                 2.4759717784       -0.7572088267       -0.0496152172
C                 3.2942804624       -0.5280990187        1.0124220336
C                 4.5807307079       -0.2401019848        0.4696189251
C                 5.7728178762        0.0594759440        1.2620590370
O                 5.8089140562        0.0869095407        2.4672850984
O                 6.8484318340        0.3047351579        0.4881166382
C                 8.0474069923        0.6052130895        1.1858376001
C                 4.4408530621       -0.3108934579       -0.8995828931
C                 5.4073179374       -0.1155340190       -2.0067673857
O                 3.1746677334       -0.6210101880       -1.2074879596
N                -1.6025301470       -1.5327730387       -0.2267665303
C                -2.8168075426       -2.1576912099       -0.2387862797
C                -2.8791091177       -3.5549281381       -0.2176608916
C                -4.1042408231       -4.1804470854       -0.2228547896
C                -5.2847547806       -3.4376584708       -0.2457677972
C                -5.2361432490       -2.0624621312       -0.2630960480
C                -4.0021889415       -1.4093443979       -0.2634445950
C                -3.9416314254        0.0497837266       -0.2717810065
O                -4.9274640274        0.7548690804       -0.2185122787
H                -4.2831401291        3.7615976576        1.0073924132
H                -3.6508626830        3.3361021931        2.5954372989
H                -4.4036047035        2.1028558892        1.5818944738
H                -1.8434196434        3.6204809563        0.8895822497
H                -1.8462072231        2.0304532714        1.6414545318
H                -1.3949306039        2.1327157582       -0.8183287640
H                -3.0378213784        3.7633190547       -1.5143134188
H                -3.2462732238        2.2475083830       -2.3989326575
H                -4.3740911430        2.6719635161       -1.1107168725
H                 0.8111620535       -1.6692068267       -1.0218932781
H                 0.6949428415       -1.6061531003        0.7588270295
H                 3.0463230714       -0.5571686646        2.0525647241
H                 8.8064806716        0.7750645324        0.4265373274
H                 7.9154123834        1.4963800101        1.8030783195
H                 8.3306081112       -0.2280601720        1.8324594105
H                 5.8229718956        0.8895289808       -1.9712070974
H                 6.2347015328       -0.8163362226       -1.9147325807
H                 4.9026306790       -0.2680292955       -2.9570557209
H                -1.9569011133       -4.1138882227       -0.1983932879
H                -4.1546767363       -5.2594092899       -0.2077408814
H                -6.2370753125       -3.9459091248       -0.2486862019
H                -6.1331654032       -1.4619994801       -0.2791095757



