%chk=calculation/no_transfer_pubchem_sampling_2_b3lyp/8479249_rwf.chk
%rwf=calculation/no_transfer_pubchem_sampling_2_b3lyp/8479249_rwf.rwf
%nprocshared=14
%mem=3GB
#p b3lyp/6-31g(d) 6D 10F nosymm GFInput td=(50-50,nstate=2) SCF=XQC 

Gaussian input prepared by ASE

0 1
C                 7.0079556977        0.8107676620       -1.9078378318
C                 6.5889062367        1.5070881849       -0.6167784864
O                 5.1947157293        1.8212168258       -0.5889417217
C                 4.2825410046        0.8581838172       -0.2666999632
C                 2.9396053190        1.2681678865       -0.2989883278
C                 1.9215531617        0.3826308434        0.0273057662
C                 2.2138731782       -0.9415234546        0.3971187416
C                 1.1109921670       -1.9393385805        0.7144012912
N                 0.1084332082       -1.4515353272        1.6623229128
C                 0.5529340467       -1.3143222227        3.0459644665
C                -1.1612692844       -1.0630246875        1.3385356746
O                -1.9706676647       -0.6456863693        2.1567750577
C                -1.5850483346       -1.1948108851       -0.1459004231
N                -2.7768698882       -0.3938411738       -0.3786306589
N                -3.9450862481       -1.0404132914       -0.3048455186
C                -5.0592406874       -0.3579264928       -0.4094203961
C                -6.3329586862       -1.1580878602       -0.3276884131
C                -5.0742154542        1.0716706346       -0.5885649971
C                -6.3846418550        1.7994979156       -0.7039742734
C                -3.8594248712        1.7183275654       -0.6441434385
C                -3.7624678953        3.1342198131       -0.8209176742
N                -3.7180972103        4.2864077539       -0.9745567239
C                -2.5995142524        0.9905268650       -0.5028999298
O                -1.4790426999        1.4901231105       -0.5053424804
C                 3.5515081152       -1.3362858582        0.4320232207
C                 4.5871805108       -0.4577042724        0.1001770863
H                 8.0926255612        0.6517578847       -1.9136853118
H                 6.7448416037        1.4285624553       -2.7722782600
H                 6.5186032834       -0.1613048444       -2.0221552198
H                 6.8641313866        0.9197732374        0.2689106923
H                 7.0853163484        2.4781668901       -0.5323731180
H                 2.7183031895        2.2928400774       -0.5805460317
H                 0.8931008743        0.7350318450       -0.0006441048
H                 0.6049711556       -2.2596328508       -0.2004742928
H                 1.5588553394       -2.8479041506        1.1389437404
H                -0.2633418109       -0.8913600719        3.6290309167
H                 1.4260325500       -0.6547819994        3.0976029648
H                 0.8278479520       -2.2950979328        3.4550919972
H                -0.8123500620       -0.8477052030       -0.8314735692
H                -1.8475926132       -2.2303708341       -0.3740091886
H                -6.9573619774       -0.8341868187        0.5138245786
H                -6.0866142160       -2.2125858677       -0.1899294720
H                -6.9359997311       -1.0552911262       -1.2382839281
H                -6.9698099868        1.4141492706       -1.5476439702
H                -6.9897179944        1.6485883750        0.1982254544
H                -6.2389480672        2.8718690658       -0.8455051824
H                 3.8038315480       -2.3550982179        0.7204274145
H                 5.6116223236       -0.8096145859        0.1384489308



