%chk=./calculation/no_transfer_pubchem_sampling_2_b3lyp/8479249.chk
%nprocshared=7
%mem=6GB
#p b3lyp/6-31g(d) opt SCF=XQC 

Gaussian input prepared by ASE

0 1
C                 6.6312012162        0.8274364282       -2.1228079775
C                 6.3954679893        1.5082583894       -0.7772075485
O                 5.0355905712        1.8187658374       -0.5549789414
C                 4.1601489449        0.8386753866       -0.2061294316
C                 2.8240886029        1.2333922908       -0.1078060562
C                 1.8439087967        0.3355488074        0.2553761009
C                 2.1707840790       -0.9879229682        0.5365884228
C                 1.1132378802       -1.9990093909        0.9255078945
N                 0.0817806170       -1.4393211703        1.7692835511
C                 0.4865636972       -1.1908255510        3.1365203308
C                -1.1369389061       -1.0359177584        1.3703735002
O                -1.9636543591       -0.5624374619        2.1235721041
C                -1.4787062115       -1.2266214056       -0.1239849231
N                -2.6385139237       -0.4154964080       -0.4057576208
N                -3.7928666391       -1.0368251398       -0.4810024708
C                -4.8977515319       -0.3635488597       -0.5937862879
C                -6.1587770155       -1.1574618912       -0.6883626137
C                -4.9059773598        1.0636073479       -0.6135763325
C                -6.1934802584        1.8101065955       -0.7073064332
C                -3.6941645210        1.7052564286       -0.5353272300
C                -3.6010987151        3.1142476552       -0.5467419077
N                -3.5417155683        4.2590623816       -0.5705131175
C                -2.4474436263        0.9618113187       -0.4142206112
O                -1.3257678933        1.4252515140       -0.3461563295
C                 3.4981971717       -1.3760846927        0.4474687783
C                 4.4888197014       -0.4831617935        0.0759522432
H                 7.6951817139        0.6620500734       -2.2688357455
H                 6.2578515458        1.4599679302       -2.9241062578
H                 6.1140983801       -0.1278290469       -2.1714235904
H                 6.7953316971        0.9001730635        0.0439689963
H                 6.8996623917        2.4786680146       -0.7609629567
H                 2.5740484933        2.2595815047       -0.3229275227
H                 0.8234452741        0.6813425899        0.3223621814
H                 0.6659956257       -2.4366529698        0.0299591255
H                 1.5887733592       -2.8154756589        1.4817885607
H                -0.3285389747       -0.6852387112        3.6488903657
H                 1.3762379559       -0.5590278100        3.1512787673
H                 0.7053297263       -2.1339848166        3.6418609363
H                -0.6593700320       -0.8847661370       -0.7591288933
H                -1.7403226478       -2.2663231174       -0.3263731200
H                -6.8234918513       -0.9144491730        0.1387198073
H                -5.9171770361       -2.2151436977       -0.6512550563
H                -6.6810571616       -0.9401446330       -1.6188011656
H                -6.7300853296        1.5240011832       -1.6115823067
H                -6.8281849223        1.5658791439        0.1441715538
H                -6.0207205238        2.8832041178       -0.7218218173
H                 3.7725977898       -2.3986594122        0.6672597399
H                 5.5074617877       -0.8338253276        0.0219793054



