%chk=calculation/no_transfer_pubchem_sampling_2_b3lyp/86987080_rwf.chk
%rwf=calculation/no_transfer_pubchem_sampling_2_b3lyp/86987080_rwf.rwf
%nprocshared=14
%mem=3GB
#p b3lyp/6-31g(d) 6D 10F nosymm GFInput td=(50-50,nstate=2) SCF=XQC 

Gaussian input prepared by ASE

0 1
C                 5.6598158067        1.7294736446       -2.7321585509
N                 4.6456187223        1.0723191462       -1.9252198301
C                 3.9641487139        1.7479866858       -0.9474228244
O                 4.1189454808        2.9495280274       -0.7460500025
C                 2.9966036808        0.9328047937       -0.1335614157
C                 2.6376938425        1.4263976603        1.1288033185
C                 1.7405654088        0.7297554027        1.9302422515
C                 1.1665228445       -0.4719214027        1.4899010445
C                 0.2047599220       -1.2218030485        2.4088456972
N                -0.5276089462       -2.3208272314        1.7980300378
C                -0.0492405843       -3.6724804031        2.0617512324
C                -1.7257858651       -2.1757463651        1.1078367111
O                -2.3858502403       -3.1449885957        0.7433761526
N                -2.0879042824       -0.8597915162        0.8600535053
C                -3.2709561463       -0.3823021329        0.2770752967
C                -4.3344871146       -1.2156720247       -0.1093988251
C                -5.4886503614       -0.6656075321       -0.6618938073
C                -5.6200731042        0.7116437839       -0.8419696302
C                -4.5690393736        1.5439803419       -0.4635696245
C                -3.3943215591        1.0184739068        0.0842281571
S                -2.0859928205        2.1458749727        0.5849970733
C                -1.0330108027        2.1735213248       -0.9230030537
C                 1.5064796640       -0.9525030843        0.2223901142
C                 2.4134765291       -0.2588660548       -0.5810340376
H                 6.6579246049        1.6635012070       -2.2785422941
H                 5.6913781600        1.2767208168       -3.7277557583
H                 5.3929910916        2.7833206356       -2.8186011000
H                 4.6485104988        0.0633250993       -1.8923167828
H                 3.0703953790        2.3658465080        1.4567505729
H                 1.4738750583        1.1270944946        2.9074583831
H                -0.4945697429       -0.5108672156        2.8687649633
H                 0.7746883389       -1.6433992495        3.2462574619
H                 1.0080280476       -3.7621311871        1.7852273423
H                -0.6415285022       -4.3684844336        1.4699705663
H                -0.1552155933       -3.9318258521        3.1242605385
H                -1.4441317288       -0.1153209997        1.1031551635
H                -4.2344527681       -2.2827348579        0.0275269322
H                -6.2975638613       -1.3314222887       -0.9515537145
H                -6.5257121665        1.1328050018       -1.2685928414
H                -4.6462807934        2.6201336866       -0.5870545154
H                -1.5894664855        2.5834942364       -1.7689356250
H                -0.6659228484        1.1733973739       -1.1644819903
H                -0.1809037624        2.8203782249       -0.6979060364
H                 1.0463525383       -1.8649635017       -0.1444887217
H                 2.6298941208       -0.6381199984       -1.5764305342



