%chk=./calculation/no_transfer_pubchem_sampling_2_b3lyp/87283763.chk
%nprocshared=7
%mem=6GB
#p b3lyp/6-31g(d) opt SCF=XQC 

Gaussian input prepared by ASE

0 1
C                 9.2421827402       -2.5855300862        1.1435923526
N                 8.5234448734       -1.3821599918        0.8115130939
C                 7.6645435681       -1.3082341142       -0.2160236594
O                 7.3823145610       -2.2393681498       -0.9398952491
C                 6.9963657704        0.0796308172       -0.3818371376
C                 7.0243566726        0.4441467226       -1.8672755069
O                 7.7381133470        1.0093156615        0.4094626062
C                 7.2579484299        2.3343213604        0.3770242733
C                 5.5926501681       -0.1110479520        0.1747828455
C                 5.4381851197       -0.1382456969        1.5611433307
C                 4.2019442463       -0.3330737249        2.1550028623
C                 3.1055573904       -0.5116487341        1.3370865620
C                 3.2551192270       -0.4935874490       -0.0476934117
C                 4.4870973530       -0.2997986431       -0.6442984682
C                 1.9427743828       -0.6935015931       -0.6717529687
N                 1.7533002365       -0.6779854083       -1.9238955413
N                 1.0620629627       -0.9073714531        0.3651736158
C                -0.3552684048       -1.0441922447        0.2283202933
C                -1.1053114646        0.2704611400        0.4793378520
O                -0.5117114620        1.2533855059        0.8688420490
C                -2.5583974682        0.2709141969        0.2352481177
C                -3.2801430111       -0.8617103352       -0.1253111029
C                -4.6459919836       -0.8119768767       -0.3506786004
C                -5.4096442050       -2.0826475571       -0.7442889062
C                -4.4899698553       -3.3107593585       -0.8302421882
C                -6.0264170149       -1.9304451053       -2.1485912452
C                -6.4675512966       -2.4312940125        0.3207678512
C                -5.2941240280        0.4311639340       -0.2089897149
O                -6.6276927161        0.5612003268       -0.4198255764
C                -4.5898799837        1.5961832286        0.1592609882
C                -5.3069645624        2.9330071372        0.3125574052
C                -6.3794305928        2.8182880078        1.4050792805
C                -4.3495805621        4.0581628480        0.7192438005
C                -5.9478027189        3.3298370879       -1.0246928924
C                -3.2322407373        1.4836319922        0.3746924643
C                 1.6655950853       -0.7356560915        1.6694509842
H                 9.0407635324       -2.8794075718        2.1754598901
H                10.3175742132       -2.4463514759        1.0148575963
H                 8.8965133597       -3.3682981970        0.4700451583
H                 8.7345116450       -0.5289135040        1.3054187324
H                 8.0326024481        0.7570010107       -2.1334360810
H                 6.3255669917        1.2450886863       -2.0944504692
H                 6.7710651046       -0.4375636560       -2.4490062592
H                 6.1850192318        2.3768624908        0.5888366489
H                 7.4539058640        2.8110714648       -0.5881193026
H                 7.8017529672        2.8690696754        1.1547478975
H                 6.3092461102        0.0063061758        2.1837959120
H                 4.1065558094       -0.3462630528        3.2308390122
H                 4.5529608472       -0.3068066656       -1.7180620464
H                 0.7917465022       -0.8097769654       -2.2244952194
H                -0.7194791359       -1.7916119652        0.9454650400
H                -0.5771159517       -1.3998550919       -0.7825960395
H                -2.7610671861       -1.7969401176       -0.2239890075
H                -5.0863216327       -4.1791772479       -1.1028375805
H                -4.0171469558       -3.5228092620        0.1255192769
H                -3.7251992063       -3.1834253783       -1.5922651679
H                -6.7430227950       -1.1194271891       -2.2497219429
H                -6.5340650470       -2.8523366746       -2.4263770014
H                -5.2318713166       -1.7497650490       -2.8701724293
H                -5.9667801731       -2.6577110343        1.2602588182
H                -7.0225234859       -3.3146752778        0.0101567517
H                -7.1877073482       -1.6435043724        0.5249898437
H                -7.0050674898       -0.2876663720       -0.6756652518
H                -7.1425924446        2.0980563380        1.1311340542
H                -6.8576650421        3.7834043730        1.5555334221
H                -5.9251366365        2.5075461390        2.3438380750
H                -3.5775354975        4.2112815861       -0.0307616479
H                -3.8815632320        3.8521837363        1.6787891244
H                -4.9117314686        4.9849659732        0.8138223994
H                -6.7038648386        2.6129760490       -1.3258052575
H                -6.4185916266        4.3059010318       -0.9327776421
H                -5.1878134850        3.3843297111       -1.8015581050
H                -2.6359387022        2.3344060957        0.6564875621
H                 1.2320975963        0.1274417832        2.1904964044
H                 1.5124864077       -1.6290175883        2.2905233725



