%chk=calculation/no_transfer_pubchem_sampling_2_b3lyp/87283763_rwf.chk
%rwf=calculation/no_transfer_pubchem_sampling_2_b3lyp/87283763_rwf.rwf
%nprocshared=14
%mem=3GB
#p b3lyp/6-31g(d) 6D 10F nosymm GFInput td=(50-50,nstate=2) SCF=XQC 

Gaussian input prepared by ASE

0 1
C                 9.5900034895       -2.4956741643        0.9680192097
N                 8.7742877105       -1.3218757688        0.7259198828
C                 7.7708611885       -1.3062942360       -0.1873953966
O                 7.4351301866       -2.2684377232       -0.8680752182
C                 7.0148613822        0.0507519749       -0.3202483700
C                 7.0316375160        0.4387982994       -1.8046422594
O                 7.7451341163        1.0022246445        0.4773767166
C                 7.2906412664        2.3474290022        0.4369779283
C                 5.6048790254       -0.1529556378        0.2541607718
C                 5.4452555438       -0.1844157588        1.6533914928
C                 4.2000810748       -0.3934116841        2.2468618546
C                 3.0950101299       -0.5793086007        1.4211786530
C                 3.2475086722       -0.5548933603        0.0367868017
C                 4.4869344493       -0.3460799667       -0.5622890562
C                 1.9336381578       -0.7622033708       -0.6103341248
N                 1.7515607724       -0.7245917777       -1.8793762316
N                 1.0423826782       -1.0075942694        0.4370632990
C                -0.3772545962       -1.1078170559        0.2723748317
C                -1.1242686651        0.2397084722        0.4107025002
O                -0.5019123233        1.2443554536        0.7218402528
C                -2.5935780077        0.2649994725        0.1806862413
C                -3.3303818621       -0.8715550328       -0.1675239309
C                -4.7105482395       -0.8263835217       -0.3820655235
C                -5.4949258721       -2.1077544632       -0.7672002330
C                -4.5703826197       -3.3409621009       -0.8623377988
C                -6.1480580076       -1.9575897838       -2.1688890587
C                -6.5560081764       -2.4539281906        0.3134403826
C                -5.3417628212        0.4361067440       -0.2318475844
O                -6.6892716006        0.5860362460       -0.4217549664
C                -4.6345003869        1.6163664557        0.1208739127
C                -5.3426792418        2.9820957027        0.2787529238
C                -6.4076707248        2.9115717784        1.4014725589
C                -4.3453354013        4.0938974064        0.6665524746
C                -6.0021854034        3.4054706389       -1.0574531413
C                -3.2635087470        1.4880724239        0.3185540307
C                 1.6436987196       -0.8104271661        1.7566205013
H                 9.6136543186       -2.7408550003        2.0361547828
H                10.6200655965       -2.3494743230        0.6185214638
H                 9.1447668853       -3.3258578154        0.4175171228
H                 8.9982833422       -0.4387006582        1.1628536479
H                 8.0535393303        0.7059244666       -2.0936372867
H                 6.3715497363        1.2857856245       -2.0132320700
H                 6.7170792956       -0.4130673783       -2.4099605638
H                 6.2231620313        2.4236723726        0.6787745255
H                 7.4711433755        2.8102639464       -0.5416277422
H                 7.8672568025        2.8872441050        1.1927281449
H                 6.3182980294       -0.0337372829        2.2805934698
H                 4.1066241717       -0.4080857966        3.3300764634
H                 4.5528575995       -0.3419013454       -1.6439380808
H                 0.7709626565       -0.8602339422       -2.1378307844
H                -0.7836315413       -1.8110920945        1.0137459254
H                -0.5916965711       -1.5487181540       -0.7089064359
H                -2.8181972784       -1.8180956510       -0.2738593242
H                -5.1668264538       -4.2183323399       -1.1347780229
H                -4.0798856622       -3.5614951409        0.0918432281
H                -3.7987605405       -3.2182507502       -1.6298342136
H                -6.8499215742       -1.1214652433       -2.2604592247
H                -6.6973895227       -2.8701253789       -2.4275777662
H                -5.3757584335       -1.7986297639       -2.9289136185
H                -6.0665069316       -2.6410837159        1.2751521702
H                -7.1021249128       -3.3603015332        0.0276642234
H                -7.3003742037       -1.6703291048        0.4914249258
H                -7.0817368483       -0.2619337211       -0.6645348932
H                -7.1867630227        2.1797625107        1.1825257231
H                -6.8838244441        3.8923648677        1.5219081055
H                -5.9428547755        2.6460159069        2.3584495744
H                -3.5701376745        4.2388706409       -0.0940345113
H                -3.8531779075        3.8930714847        1.6247284520
H                -4.8878817639        5.0402635021        0.7676542886
H                -6.7636963385        2.6947353412       -1.3821675535
H                -6.4779163405        4.3869110864       -0.9406424321
H                -5.2489145337        3.4912587391       -1.8495197332
H                -2.6590703496        2.3439755526        0.5878975619
H                 1.1965018979        0.0541618768        2.2656832552
H                 1.4920311728       -1.6962429717        2.3925918760



