%chk=calculation/no_transfer_pubchem_sampling_2_b3lyp/88075217_rwf.chk
%rwf=calculation/no_transfer_pubchem_sampling_2_b3lyp/88075217_rwf.rwf
%nprocshared=14
%mem=3GB
#p b3lyp/6-31g(d) 6D 10F nosymm GFInput td=(50-50,nstate=2) SCF=XQC 

Gaussian input prepared by ASE

0 1
C                 1.0796586554       -2.9925282144       -3.3256183873
C                 0.9177832858       -2.1688320715       -2.0654829748
O                 0.3662039954       -2.5662057348       -1.0639541621
S                 1.6632245629       -0.5257283139       -2.1727581457
C                 1.3935472431        0.0389545522       -0.4346588375
C                 2.2151421603        1.3101502316       -0.1275630352
C                 3.7422108369        1.1350434469       -0.1712361883
C                 4.2796705806        0.1743564763        0.8998240487
N                 5.7346037748        0.0947483954        0.8914157331
C                 6.4607205672       -0.9529447403        0.2988507260
O                 5.9759092986       -1.9102381593       -0.2706486650
C                 7.8994017488       -0.6253085312        0.5312240886
C                 9.0449058576       -1.3154127267        0.1636392777
C                10.2781662735       -0.7579578399        0.5272696652
C                10.3454123122        0.4488938445        1.2350847014
C                 9.1816050754        1.1378066737        1.6023244250
C                 7.9664465109        0.5778289156        1.2370972068
C                 6.5723376387        1.0580412976        1.4755655593
O                 6.1934391813        2.0607243565        2.0487582262
C                -0.0688530349        0.1325989044        0.0691641801
O                -0.2315114622       -0.2173889418        1.2347288406
N                -1.1153708102        0.5365869866       -0.7469472096
C                -0.9498487897        1.4334056130       -1.9149058294
C                -1.7125544738        2.7599693307       -1.7488840970
C                -1.1261714461        3.7445986440       -0.7158291742
C                -2.2025627459        4.7275450784       -0.2308780667
C                 0.0797504416        4.5129861441       -1.2795094526
C                -2.4589166738        0.0192678936       -0.5982573274
O                -3.2316601339        0.1170593632       -1.5443292180
N                -2.7574245676       -0.5556520851        0.5890124897
C                -4.0310648635       -1.2233769600        0.8176805208
C                -4.6213730616       -0.6052244364        2.0870389153
O                -3.9631081736       -0.4476491441        3.1033147291
N                -5.9553286275       -0.1790125382        2.1131901469
C                -6.9398661239       -0.1039841137        1.1388875724
N                -6.9498442087       -0.7153939864       -0.0069247848
C                -8.0829508639       -0.3932483794       -0.7229862156
C                -8.9616198710        0.4541152927       -0.1237372495
S                -8.3508736268        0.9264065270        1.4402973985
C                -3.8776268806       -2.7881833934        0.9329135873
C                -5.2316445731       -3.4120134563        1.3259648946
C                -3.4582018566       -3.3211819205       -0.4512113088
C                -2.8096904793       -3.1799008841        1.9720914945
H                 1.2561951571       -2.3739968052       -4.2095043798
H                 1.9365106751       -3.6642133370       -3.1947886443
H                 0.1839833860       -3.6035508898       -3.4659310536
H                 1.7659433561       -0.7781764353        0.1851968302
H                 1.9343336194        2.1187331735       -0.8106080625
H                 1.9182435960        1.6368212233        0.8777443235
H                 4.2002413058        2.1175755444       -0.0106243876
H                 4.0613055984        0.7855680247       -1.1600477809
H                 3.9192894564       -0.8452577114        0.7426223094
H                 3.9691728851        0.5059934219        1.8960882899
H                 8.9809009800       -2.2507046945       -0.3838454882
H                11.1980062416       -1.2689245682        0.2572080298
H                11.3163849582        0.8556873451        1.5031491689
H                 9.2218962056        2.0732072536        2.1518970661
H                 0.1140965950        1.6222693963       -2.0433428217
H                -1.3061523485        0.9107114641       -2.8038616175
H                -2.7522153921        2.5235261454       -1.5048396222
H                -1.7382511352        3.2459086840       -2.7351412150
H                -0.7914654829        3.1654768760        0.1580919159
H                -1.7942162833        5.4379026817        0.4978423435
H                -2.6084104407        5.3082893556       -1.0697247696
H                -3.0375792442        4.1996434854        0.2437464310
H                -0.2350285582        5.1772648105       -2.0949957216
H                 0.8492585769        3.8451155232       -1.6846924713
H                 0.5530541564        5.1331323246       -0.5092685591
H                -2.0621725439       -0.5203922541        1.3287716180
H                -4.6709075971       -1.0048956773       -0.0357358950
H                -6.1764073311        0.2366085758        3.0118966822
H                -8.2185304839       -0.8330593303       -1.7041277000
H                -9.9117463850        0.8195713227       -0.4860799038
H                -6.0250648733       -3.1204743690        0.6306525971
H                -5.1513808138       -4.5052850702        1.3170709461
H                -5.5378985189       -3.1182201445        2.3373597135
H                -2.4804188502       -2.9319589523       -0.7522681622
H                -3.3815510300       -4.4148073512       -0.4195441764
H                -4.1897618132       -3.0531556962       -1.2219949103
H                -3.0526727465       -2.8014793723        2.9693908818
H                -1.8203357939       -2.8014040508        1.6941800100
H                -2.7387257361       -4.2727683192        2.0289220877



