%chk=calculation/no_transfer_pubchem_sampling_2_b3lyp/89167832_rwf.chk
%rwf=calculation/no_transfer_pubchem_sampling_2_b3lyp/89167832_rwf.rwf
%nprocshared=14
%mem=3GB
#p b3lyp/6-31g(d) 6D 10F nosymm GFInput td=(50-50,nstate=2) SCF=XQC 

Gaussian input prepared by ASE

0 1
C                 4.6597135291        0.8378450506       -2.3488085183
C                 4.4584153081        1.5219863513       -1.2229044832
C                 3.6371419110        1.0801600495       -0.0327425406
N                 3.0084578919       -0.2349361495       -0.1459123128
C                 3.6879964021       -1.3791078050        0.1757967989
O                 3.2222713971       -2.5076903305        0.1751982008
O                 4.9869627683       -1.1123592504        0.5055071481
C                 5.7844629355       -2.2737755511        0.7931303155
C                 7.2158818498       -1.8312502572        0.9577303474
C                 7.7885223045       -0.9491175252       -0.0378621637
C                 9.0919819031       -0.5422743151       -0.0007051547
C                 9.8934259806       -1.0287531055        1.0748079243
N                11.1645346126       -0.8127375631        1.3662501725
O                11.3819072801       -1.5330049448        2.5107604172
N                10.2699379363       -2.2013294703        2.9497260359
C                 9.3319524236       -1.9002983221        2.0676414163
C                 7.9647692392       -2.2995874849        2.0051087425
C                 1.5530085666       -0.3607354174       -0.3697452539
C                 0.7545156560       -0.1466435999        0.9340000302
C                -0.7400117620       -0.0405785631        0.6187101331
N                -1.0471763530        1.1919184511       -0.1495397481
O                -2.1071964350        0.8227571289       -1.0721727176
C                -3.3264389358        1.5741496306       -0.8448364821
C                -3.2182513476        2.9854425570       -1.4225416908
C                -3.7483802033        4.1182753018       -0.7902781771
C                -3.6603812755        5.3816377056       -1.3810144006
C                -3.0427568778        5.5406936819       -2.6199215352
C                -2.5084686921        4.4225175329       -3.2631006961
C                -2.5951903678        3.1641683839       -2.6698505682
C                -3.7348598612        1.4751240348        0.6307249011
N                -4.2688232626        0.1135082559        0.7697698541
C                -4.2913600771       -0.4594222093        2.0156132710
O                -3.8615821833        0.1660085887        2.9873132823
C                -4.8668831894       -1.8652618896        2.2158202870
C                -4.0688239694       -3.0390422396        1.5844081327
C                -5.1088188311       -4.1661113601        1.4741410536
C                -6.3782671297       -3.4321447988        1.0082338073
C                -6.3550659868       -2.0871612331        1.7757568824
C                -4.5825712226       -0.4713572206       -0.5380322953
C                -4.4357237766        0.7059434483       -1.5184339011
C                -4.2099580841        0.2566911033       -2.9615385428
C                 0.1040121726        1.6709836803       -0.9386622655
C                 1.0083922583        0.5632962269       -1.4961415934
H                 4.2212395858       -0.1439122375       -2.5059786614
H                 5.2660585495        1.2416541055       -3.1545202145
H                 4.9159804891        2.5047001024       -1.1002109070
H                 4.2706170070        1.1071077486        0.8611286503
H                 2.8428411469        1.8156603000        0.1424810432
H                 5.4128398293       -2.7677972482        1.6958897873
H                 5.6814519604       -2.9853212314       -0.0345130669
H                 7.1337416490       -0.5905376143       -0.8259715196
H                 9.5124928490        0.1223338632       -0.7474019071
H                 7.5481273291       -2.9519442425        2.7656334812
H                 1.4137741574       -1.3998867422       -0.6707579814
H                 0.9281709483       -0.9900066191        1.6104476187
H                 1.0924750789        0.7562300891        1.4586961264
H                -1.3385979384       -0.0420951806        1.5355695604
H                -1.0415964016       -0.9160439220        0.0249063834
H                -4.2308495489        4.0355656097        0.1772923688
H                -4.0748497997        6.2425395127       -0.8629878841
H                -2.9749739578        6.5235061139       -3.0784994097
H                -2.0212489911        4.5288958832       -4.2290131123
H                -2.1652012436        2.3045508707       -3.1724562989
H                -2.8961708238        1.6414268434        1.3038470962
H                -4.5154772196        2.2006976520        0.8842650774
H                -4.8143549806       -1.9835470584        3.3010168604
H                -3.6984981242       -2.7844424751        0.5853715532
H                -3.1978314788       -3.3068313065        2.1913560433
H                -4.8011113366       -4.9690742742        0.7951334625
H                -5.2755059906       -4.6173461549        2.4615626468
H                -7.2955130494       -4.0030593031        1.1878615495
H                -6.3188279597       -3.2539574805       -0.0736401396
H                -6.9874157169       -2.1395175001        2.6682375257
H                -6.7467869311       -1.2609016021        1.1747654537
H                -5.5903498542       -0.8961206530       -0.5725440067
H                -3.8703963029       -1.2617020033       -0.8030857657
H                -5.3517080759        1.3105993735       -1.4745347471
H                -4.2008421261        1.1084597821       -3.6477719949
H                -3.2630458550       -0.2816342161       -3.0630113281
H                -5.0191489895       -0.4122849195       -3.2782336918
H                 0.6760833044        2.3310040784       -0.2735270891
H                -0.2884925210        2.3037065513       -1.7341010676
H                 1.8274866004        1.0029029315       -2.0737433534
H                 0.4241362300       -0.0420039841       -2.1983062547



