%chk=./calculation/no_transfer_pubchem_sampling_2_b3lyp/89167832.chk
%nprocshared=7
%mem=6GB
#p b3lyp/6-31g(d) opt SCF=XQC 

Gaussian input prepared by ASE

0 1
C                 4.5441861629        1.1380392538       -1.3858213036
C                 4.2979113771        1.7155217525       -0.2249900438
C                 3.3734205614        1.1908995411        0.8384839113
N                 2.8018569034       -0.1018644972        0.5350171248
C                 3.5304187029       -1.2294190659        0.6711942586
O                 3.1391209070       -2.3443330033        0.4108117523
O                 4.7785991093       -0.9671369457        1.1430155961
C                 5.6192619026       -2.0943774725        1.3356544394
C                 7.0218194291       -1.8196268634        0.8717322071
C                 7.2233085803       -0.9206195940       -0.2154688092
C                 8.4549453746       -0.6347753840       -0.7178326368
C                 9.5577937523       -1.2767504094       -0.1217245502
N                10.8547313261       -1.2272474050       -0.3616851724
O                11.4244241569       -2.0452544389        0.5194031433
N                10.5532452116       -2.6347624743        1.3350437575
C                 9.3609495463       -2.1907614913        0.9795276156
C                 8.0714928230       -2.4529017804        1.4763299645
C                 1.4000479274       -0.2284309188        0.1581705715
C                 0.4954787190       -0.0939265096        1.3918409863
C                -0.9636043164       -0.0101583153        0.9643162562
N                -1.2409935580        1.1589294193        0.1255965155
O                -2.1099492256        0.7438588254       -0.9360164302
C                -3.3175272162        1.5068150499       -0.9841258294
C                -3.0905320301        2.8241896628       -1.6982606286
C                -3.6769929560        4.0210567029       -1.3093048812
C                -3.4439423337        5.1842510426       -2.0243507156
C                -2.6229072450        5.1732679022       -3.1372814153
C                -2.0281626526        3.9868449277       -3.5307023706
C                -2.2612233763        2.8260343518       -2.8174657805
C                -3.9519802338        1.5850017798        0.4076903134
N                -4.4414654268        0.2357546802        0.6341013890
C                -4.3599912317       -0.2922173561        1.8742026815
O                -3.9557430255        0.3902169751        2.8045394462
C                -4.7630038921       -1.7367063394        2.1342622577
C                -3.7514607900       -2.7578112087        1.5776215291
C                -4.5966411146       -3.9909118882        1.2661134952
C                -5.9000741376       -3.4049098192        0.7299856721
C                -6.1488001281       -2.1832075347        1.6208049811
C                -4.7745115716       -0.3894078993       -0.6310451585
C                -4.3690578253        0.6270664711       -1.7102939852
C                -3.8893476934       -0.0449046564       -2.9873555437
C                -0.0430521190        1.7777425287       -0.4107799472
C                 0.9785699126        0.7672495875       -0.9380838689
H                 4.0783779027        0.2084318549       -1.6721006768
H                 5.2194560643        1.5734392679       -2.1024356448
H                 4.7781783756        2.6484345369        0.0384345821
H                 3.9311795450        1.1295279610        1.7803402717
H                 2.5570611516        1.9033620396        0.9817097991
H                 5.6157974163       -2.3568975415        2.4002154364
H                 5.1935638455       -2.9408334795        0.7760065282
H                 6.3490347464       -0.4447853913       -0.6334481587
H                 8.6031635417        0.0486207847       -1.5372906212
H                 7.9390958194       -3.1336802755        2.3012306173
H                 1.3044669787       -1.2506809446       -0.2224175928
H                 0.6282288297       -0.9666190983        2.0323041982
H                 0.7622412520        0.7888349595        1.9740118354
H                -1.6118614086        0.0475800412        1.8443215779
H                -1.2188457475       -0.9193756633        0.4063193289
H                -4.3157548161        4.0672339819       -0.4421287261
H                -3.9078349144        6.1058126182       -1.7048569128
H                -2.4447892822        6.0823352445       -3.6920589235
H                -1.3810328295        3.9643500605       -4.3954736883
H                -1.7876795742        1.9043683244       -3.1198479156
H                -3.2354112313        1.8571087497        1.1818243450
H                -4.7925295776        2.2836942681        0.4228325960
H                -4.7549022915       -1.8125431616        3.2257418803
H                -3.2773551877       -2.3871996417        0.6691752575
H                -2.9613638569       -2.9654647339        2.2976039250
H                -4.1123534162       -4.6590859522        0.5550655736
H                -4.7914680413       -4.5470431636        2.1841713162
H                -6.7239716399       -4.1159695436        0.7753902702
H                -5.7707838521       -3.1061066635       -0.3110005978
H                -6.7678844431       -2.4694789519        2.4714402506
H                -6.6747258234       -1.3866791342        1.0981248146
H                -5.8423312659       -0.6142100570       -0.6992317940
H                -4.2115943627       -1.3144608579       -0.7689400246
H                -5.2188822552        1.2771165841       -1.9418924519
H                -3.7253231128        0.6934691564       -3.7673596229
H                -2.9608770071       -0.5778910133       -2.8027564133
H                -4.6402056491       -0.7509483825       -3.3360554586
H                 0.3794603560        2.3837823948        0.3950851111
H                -0.3497059877        2.4580867639       -1.2066686059
H                 1.8453979486        1.2933010336       -1.3355728846
H                 0.5141415137        0.2207458415       -1.7606275955



