%chk=calculation/no_transfer_pubchem_sampling_2_b3lyp/9069489_rwf.chk
%rwf=calculation/no_transfer_pubchem_sampling_2_b3lyp/9069489_rwf.rwf
%nprocshared=14
%mem=3GB
#p b3lyp/6-31g(d) 6D 10F nosymm GFInput td=(50-50,nstate=2) SCF=XQC 

Gaussian input prepared by ASE

0 1
C                -4.2114345121        2.9759033075        2.6387136612
C                -4.7786473186        2.0512396750        1.6210634307
O                -6.1123620799        2.1727884783        1.3665581043
C                -6.4412761734        1.2496679315        0.4135540786
C                -5.3505940312        0.5321855463        0.0517853844
C                -4.2524513934        1.0472592969        0.8374495036
C                -2.8510178997        0.6491736130        0.8204184537
N                -1.8445435066        1.4158856559        1.2212711073
N                -0.6836909975        0.7133625285        1.0685000952
C                -0.9878450976       -0.4655935650        0.5670560764
S                 0.1837343202       -1.7472646662        0.2805270239
C                 0.5511186848       -1.5865436527       -1.5402779244
C                 0.2803400069       -0.1973675284       -2.1096658828
O                -0.7365647409        0.0045093369       -2.7737396505
N                 1.1920749775        0.7852122333       -1.8811625406
C                 2.2867228055        0.8010369636       -0.9107821355
C                 3.3558801400        1.8154316625       -1.3243188408
C                 4.5229340901        1.8550910191       -0.3430078927
O                 5.1375996589        0.5776992137       -0.3336739812
C                 6.1245233862        0.3763328216        0.6823463096
C                 6.3163501002       -1.1324535549        0.7983698607
C                 7.4327958275        1.1024252059        0.3539478331
N                -2.3597002606       -0.5669692031        0.3950794860
C                -3.0837260312       -1.7035970878       -0.0990082302
C                -3.0845581693       -1.9758494847       -1.4697437647
C                -3.8021933162       -3.0778632472       -1.9389797835
C                -4.5108619594       -3.8906340280       -1.0512967656
C                -4.5004608486       -3.6073490937        0.3163607853
C                -3.7838009170       -2.5124659564        0.7986139395
H                -3.1588427271        2.7407505151        2.8008830024
H                -4.7619573913        2.9009107324        3.5844931328
H                -4.2785789540        4.0176726542        2.3001838171
H                -7.4758148561        1.2389671206        0.1071586943
H                -5.3150610864       -0.2522242338       -0.6882252050
H                 1.6002519526       -1.8803612288       -1.6386612873
H                -0.0738537749       -2.2870190347       -2.0936789601
H                 0.8596981876        1.6897284344       -2.1993536612
H                 2.7411920285       -0.1900647542       -0.8628564865
H                 1.8978277826        1.0358007170        0.0889986635
H                 2.9182304815        2.8222182915       -1.3793499175
H                 3.7318938650        1.5683041272       -2.3244369561
H                 5.2331524388        2.6393334335       -0.6471891565
H                 4.1632642728        2.1109227910        0.6685798074
H                 5.7283911683        0.7636027344        1.6367393834
H                 6.6853492672       -1.5418204969       -0.1488700596
H                 5.3668463544       -1.6213908535        1.0374632880
H                 7.0407449704       -1.3722259215        1.5842412664
H                 8.1799558252        0.9191421793        1.1345549353
H                 7.2907261049        2.1858219885        0.2803136818
H                 7.8343743408        0.7434142229       -0.6005358604
H                -2.5256290430       -1.3315618686       -2.1440092706
H                -3.8085226687       -3.2972844975       -3.0030177952
H                -5.0695465158       -4.7447636486       -1.4239619764
H                -5.0479466286       -4.2391539396        1.0099226295
H                -3.7644871393       -2.2799728855        1.8587855488



