%chk=calculation/no_transfer_pubchem_sampling_2_b3lyp/92899129_rwf.chk
%rwf=calculation/no_transfer_pubchem_sampling_2_b3lyp/92899129_rwf.rwf
%nprocshared=14
%mem=3GB
#p b3lyp/6-31g(d) 6D 10F nosymm GFInput td=(50-50,nstate=2) SCF=XQC 

Gaussian input prepared by ASE

0 1
C                 7.6020243607       -2.1424266144       -0.1034705431
C                 6.4697578962       -1.1426197641       -0.0636931662
C                 5.2506956667       -1.3988904542       -0.7040602031
C                 4.2183847658       -0.4663815339       -0.6930657865
C                 4.3730068053        0.7630856180       -0.0336378159
N                 3.2854916188        1.6582837337       -0.0685723635
C                 3.1649610956        2.8763868742        0.5393359224
O                 4.0256365872        3.4355240022        1.2078280315
C                 1.8082787952        3.5497406238        0.2939278722
S                 0.4030423079        2.8338537953        1.2450249466
C                -0.2693410094        1.6287724496        0.1209505046
C                -1.5388326742        1.1306709422        0.3902671557
C                -2.0503210105        0.1505485012       -0.4929399671
N                -3.2670406727       -0.4299400865       -0.3082599354
C                -3.8362243848       -1.3600006646       -1.2922058442
C                -5.2973939000       -1.0008133934       -1.5802704844
C                -6.1581658670       -0.9498955502       -0.2890028158
C                -5.3024121857       -1.0113789946        0.9914938069
C                -6.1154059562       -0.6552437384        2.2404582070
C                -4.0755654753       -0.0976686175        0.8700983542
N                -1.3262077104       -0.2325865480       -1.5779124619
C                -0.1401824967        0.3294227917       -1.7321182551
N                 0.4590040001        1.2299823551       -0.9398383601
C                 5.5859405073        1.0354755343        0.6175311573
C                 6.6062012785        0.0858126840        0.5940128439
H                 7.2286799527       -3.1686231701       -0.1928702383
H                 8.2678648319       -1.9644326337       -0.9592095832
H                 8.2179137699       -2.0865643829        0.8008841269
H                 5.1028609228       -2.3456439719       -1.2193847904
H                 3.2787823423       -0.6930369904       -1.1922354717
H                 2.4486827535        1.3434328031       -0.5651701606
H                 1.5328918019        3.5392061541       -0.7639690457
H                 1.8934366007        4.5800776258        0.6420484065
H                -2.1070509320        1.5061928572        1.2309100093
H                -3.7569075646       -2.3913306949       -0.9196871245
H                -3.2269301381       -1.2965858775       -2.1923300215
H                -5.7029026032       -1.7290131883       -2.2918914642
H                -5.3164045738       -0.0277807135       -2.0848837214
H                -6.8796198265       -1.7753044328       -0.2691614296
H                -6.7509105330       -0.0258283679       -0.2754298893
H                -4.9342003139       -2.0396585943        1.1125749669
H                -5.5175277490       -0.7586808944        3.1534888767
H                -6.4814083716        0.3780292554        2.1918796983
H                -6.9872619393       -1.3119464172        2.3355466176
H                -3.4572842118       -0.1942920345        1.7726579100
H                -4.4069295471        0.9528337910        0.8189161254
H                 0.4289979055        0.0177579957       -2.6070822759
H                 5.7116537949        1.9763769147        1.1347797257
H                 7.5382412854        0.3127550215        1.1077369528



