%chk=calculation/no_transfer_pubchem_sampling_2_b3lyp/95876918_rwf.chk
%rwf=calculation/no_transfer_pubchem_sampling_2_b3lyp/95876918_rwf.rwf
%nprocshared=14
%mem=3GB
#p b3lyp/6-31g(d) 6D 10F nosymm GFInput td=(50-50,nstate=2) SCF=XQC 

Gaussian input prepared by ASE

0 1
N                 4.4532953389        0.0763288532        3.3462338374
C                 4.5466527283        0.1835407621        1.9791937640
N                 5.7229616501        0.6274176002        1.4973786545
C                 5.7475192678        0.7767066020        0.1671223899
C                 4.6822243057        0.5023034379       -0.6741389623
C                 3.5018965490        0.0164821443       -0.0550680184
N                 2.3863493343       -0.3158888559       -0.7765039386
C                 2.3830277711       -0.1956251059       -2.2357511998
C                 1.1229382354       -0.8334223815       -2.8226026507
C                -0.1677844972       -0.2114198372       -2.2567454406
C                -0.0522526417        0.1026906568       -0.7378320402
C                -1.3531095679       -0.1779379006        0.0324246596
C                -2.5427849916        0.7001087427       -0.4088849212
C                -3.8043622778        0.4145389675        0.3785525154
C                -4.7254269054       -0.5455168911       -0.0617089401
C                -5.8703035393       -0.8373840559        0.6810062842
C                -6.1147531510       -0.1697081835        1.8822825527
C                -5.2068996591        0.7906698555        2.3323581007
C                -4.0637478663        1.0780955358        1.5855689150
C                 1.1255335247       -0.6644124730       -0.1140724986
N                 3.4494421380       -0.1392628994        1.2813297575
H                 3.7152295210       -0.5175854648        3.6955267431
H                 5.3339611644        0.0472317819        3.8397302237
H                 6.6855038967        1.1427693373       -0.2501450053
H                 4.7648284480        0.6619533167       -1.7404136961
H                 2.4429935275        0.8633651365       -2.5373195275
H                 3.2708030006       -0.6941676089       -2.6448128286
H                 1.1447068657       -1.9092443548       -2.6097712296
H                 1.1517420420       -0.7336654263       -3.9135972617
H                -1.0000727733       -0.9044746454       -2.4368977591
H                -0.4085023926        0.7059406714       -2.8075301665
H                 0.1828688370        1.1708204130       -0.6226729160
H                -1.6257313359       -1.2372440060       -0.0819643526
H                -1.1816650131       -0.0199124975        1.1058527157
H                -2.7367674494        0.5456122513       -1.4776116572
H                -2.2645815774        1.7561026380       -0.2913156258
H                -4.5449025386       -1.0666286422       -0.9999613578
H                -6.5736938785       -1.5828707243        0.3187135149
H                -7.0074323314       -0.3925960205        2.4606174318
H                -5.3908239613        1.3204510721        3.2635950298
H                -3.3637687212        1.8318727866        1.9407210567
H                 1.2383064760       -0.4165192054        0.9409988679
H                 0.9465814479       -1.7495133825       -0.1718830204



