%chk=calculation/no_transfer_pubchem_sampling_6_b3lyp/100582249_rwf.chk
%rwf=calculation/no_transfer_pubchem_sampling_6_b3lyp/100582249_rwf.rwf
%nprocshared=14
%mem=3GB
#p b3lyp/6-31g(d) 6D 10F nosymm GFInput td=(50-50,nstate=2) SCF=XQC 

Gaussian input prepared by ASE

0 1
C                -1.5804815726        0.9787051451        2.1377229979
C                -2.5042360025        0.1803564502        1.2109042597
C                -3.3531983614        1.0139822861        0.2251517245
C                -4.3273685894        1.9730698688        0.9388300789
C                -5.2645678375        1.3304974262        1.9671344988
C                -2.5330695075        1.8034508356       -0.8084916804
C                -1.7428259762        0.9307568208       -1.7998719696
N                -0.4323345735        0.4998214015       -1.2804928586
C                 0.6468527334        1.3403801540       -1.3178790145
O                 0.5435872734        2.5123875418       -1.6769497378
C                 1.9704514214        0.7598565107       -0.8978648381
C                 2.1070900386       -0.4060177386       -0.1308182732
C                 3.3687670563       -0.8789618520        0.2230977293
C                 4.5221141309       -0.1955050381       -0.1788727259
C                 5.9078146802       -0.7230752396        0.1535375838
N                 6.0190370873       -1.3146639544        1.4794643487
C                 5.8998150712       -0.6626368688        2.6929392922
C                 6.0671422215       -1.6323562153        3.6495221695
N                 6.2843047100       -2.8617703710        3.0669191252
C                 6.2479163616       -2.6332922869        1.7725900690
C                 4.3840668974        0.9783214151       -0.9288721217
C                 3.1242517622        1.4529800681       -1.2826222713
C                -2.5524161843       -0.2747081265       -2.2249020536
C                -2.1623069760       -1.0542588241       -3.3240399644
C                -2.9105975105       -2.1496558872       -3.7434516251
C                -4.0861637155       -2.4752559147       -3.0568629587
C                -4.4940461249       -1.7189392520       -1.9650336755
C                -3.7304842045       -0.6200959054       -1.5416363560
O                -4.2227428694        0.0775811508       -0.4796580477
H                -0.8399840091        1.5593659477        1.5783062029
H                -1.0323538558        0.2987810526        2.7995920678
H                -2.1401645218        1.6720099425        2.7752073356
H                -1.9079180275       -0.5358616514        0.6355885036
H                -3.1967451136       -0.4211870223        1.8100953754
H                -4.9292435128        2.4563928359        0.1596678801
H                -3.7395404046        2.7689876456        1.4128968151
H                -5.9894232089        2.0684645824        2.3280586715
H                -4.7242150720        0.9498497159        2.8406919352
H                -5.8205894180        0.4998044230        1.5223385066
H                -3.2350401575        2.4106337394       -1.3938262302
H                -1.8503597077        2.5003291324       -0.3161634764
H                -1.5271016695        1.5562524322       -2.6745259939
H                -0.2773793268       -0.4946227484       -1.1953239635
H                 1.2307299925       -0.9391809640        0.2276710424
H                 3.4574133010       -1.7747129238        0.8313462036
H                 6.1970825142       -1.5020998523       -0.5622407764
H                 6.6449480067        0.0821425897        0.0555705644
H                 5.7047076138        0.3979471974        2.7503547733
H                 6.0463689978       -1.5161376627        4.7249629783
H                 6.3871929010       -3.3714560794        0.9925160771
H                 5.2707957539        1.5289827920       -1.2353982283
H                 3.0081938691        2.3699336534       -1.8506709485
H                -1.2558618861       -0.7789153195       -3.8599568200
H                -2.5907539747       -2.7368316761       -4.5991568425
H                -4.6863502022       -3.3240286134       -3.3738899265
H                -5.4007773214       -1.9557947691       -1.4170774320



