%chk=./calculation/no_transfer_pubchem_sampling_6_b3lyp/100582249.chk
%nprocshared=7
%mem=6GB
#p b3lyp/6-31g(d) opt SCF=XQC 

Gaussian input prepared by ASE

0 1
C                -1.1890318490        0.8183541154        1.8656823991
C                -2.2216618923        0.0527069407        1.0486650174
C                -3.1895786157        0.9276152212        0.2310496203
C                -4.0637043190        1.8324552470        1.1184761001
C                -4.8304824715        1.0904287497        2.2072419570
C                -2.4819429401        1.8011579218       -0.8104997851
C                -1.7543279655        0.9873341474       -1.8858648720
N                -0.4388315840        0.5353079252       -1.4500868938
C                 0.5985657587        1.3919195738       -1.3162942014
O                 0.4908659230        2.5889545605       -1.5067786465
C                 1.8924934711        0.7619213851       -0.9149313847
C                 1.9690807583       -0.3771779321       -0.1196107087
C                 3.2003472939       -0.8945524361        0.2353757499
C                 4.3745124937       -0.2868887313       -0.1937471329
C                 5.7128762004       -0.8662674304        0.2001645979
N                 5.7391030890       -1.2449397936        1.5875953572
C                 5.6352895923       -0.3947505247        2.6534305454
C                 5.6504548699       -1.1834458748        3.7665886880
N                 5.7560743539       -2.4896549989        3.4087001275
C                 5.8026519979       -2.4935576033        2.1063680627
C                 4.2973826968        0.8585003199       -0.9742816897
C                 3.0682204225        1.3801704937       -1.3275494989
C                -2.5836930902       -0.1935832805       -2.3049339293
C                -2.2531974794       -0.9116221978       -3.4479156235
C                -3.0158353608       -1.9849946481       -3.8637345561
C                -4.1393183151       -2.3455070272       -3.1346358257
C                -4.4779150614       -1.6508933856       -1.9931186961
C                -3.6994565461       -0.5764388064       -1.5579505349
O                -4.1087244140        0.0447588248       -0.4279967966
H                -0.5400255549        1.4153145088        1.2304451947
H                -0.5673144831        0.1166157013        2.4181970142
H                -1.6698287220        1.4771108797        2.5833260323
H                -1.7149164117       -0.6263673282        0.3597953908
H                -2.8242826786       -0.5687465074        1.7135675243
H                -4.7839503410        2.3247896494        0.4619002941
H                -3.4334950440        2.6045594725        1.5604207892
H                -5.5576449919        1.7584605637        2.6627616580
H                -4.1664842050        0.7317862665        2.9892011565
H                -5.3600900192        0.2447701503        1.7773157372
H                -3.2417262063        2.4061082578       -1.3108442166
H                -1.7793190853        2.4789429876       -0.3305940337
H                -1.5879798167        1.6526071601       -2.7461786663
H                -0.2795995943       -0.4577804499       -1.4011219658
H                 1.0734122679       -0.8517772383        0.2533925763
H                 3.2510016648       -1.7742432907        0.8610975054
H                 5.9193172083       -1.7619842736       -0.3963818487
H                 6.5050888105       -0.1349073223        0.0048135301
H                 5.5593626233        0.6654901110        2.5259638081
H                 5.5942519221       -0.8975830630        4.7974458517
H                 5.8902079789       -3.3724680669        1.4981002087
H                 5.2034508911        1.3465792154       -1.3033998725
H                 2.9970707050        2.2779175067       -1.9225586582
H                -1.3862913880       -0.6073533744       -4.0179093441
H                -2.7446990160       -2.5310652568       -4.7540807535
H                -4.7503147143       -3.1750964982       -3.4570431741
H                -5.3454158169       -1.9189885165       -1.4109111846



