%chk=calculation/no_transfer_pubchem_sampling_6_b3lyp/100682679_rwf.chk
%rwf=calculation/no_transfer_pubchem_sampling_6_b3lyp/100682679_rwf.rwf
%nprocshared=14
%mem=3GB
#p b3lyp/6-31g(d) 6D 10F nosymm GFInput td=(50-50,nstate=2) SCF=XQC 

Gaussian input prepared by ASE

0 1
C                 0.6393622935        2.0362688271       -2.5225363232
N                -0.1130517939        1.0561897270       -1.7584383231
C                -0.2000295443       -0.2480319067       -2.1201267327
O                 0.3213724935       -0.7164927361       -3.1294371180
C                -1.0937881458       -1.1123053266       -1.1902972292
C                -1.1165688039       -2.5952850176       -1.6297473763
C                -2.2176083725       -3.3940478216       -0.9656884854
C                -1.9706984394       -4.1513027648        0.1872131155
C                -2.9959821990       -4.8651260140        0.8106250018
C                -4.2895676120       -4.8349848063        0.2878885080
C                -4.5493762063       -4.0896013214       -0.8642915643
C                -3.5213611973       -3.3783636695       -1.4838120063
N                -0.8357235719       -0.8969895612        0.2441793841
C                -2.0054513869       -0.5534946670        1.0825947556
C                -2.4090201382        0.9049075131        0.9741653760
C                -3.6181873735        1.2751156175        0.3776707967
C                -3.9649559939        2.6248099920        0.2700108110
C                -3.1075522465        3.6092909061        0.7545617635
C                -1.8909552478        3.2642418477        1.3650417277
C                -0.9811916293        4.3313347191        1.9293488584
C                -1.5570257399        1.9093310125        1.4650664326
C                 0.3850337784       -1.0043260842        0.8801261638
O                 0.4927145668       -0.7625974949        2.0822814494
C                 1.6190627926       -1.4593113269        0.0918709077
C                 2.7594293186       -0.4484140052        0.0830994960
C                 3.3099741791       -0.0472043982       -1.1386293968
C                 4.3869466805        0.8487885959       -1.1895586772
C                 4.9968275483        1.2435824265       -2.5159112925
C                 4.8978366157        1.3466267133        0.0124037718
C                 4.3672579982        0.9596109960        1.2501087757
C                 4.9578916439        1.4875592063        2.5382520526
C                 3.2981873862        0.0589159069        1.2725622245
H                 1.5900443032        2.2797294233       -2.0339300001
H                 0.8460574033        1.6091600934       -3.5048500638
H                 0.0503244856        2.9516832237       -2.6407136424
H                -0.5318786365        1.3439504318       -0.8824857590
H                -2.1056897328       -0.7197170029       -1.3483117888
H                -0.1454198484       -3.0571105904       -1.4299219842
H                -1.2387072518       -2.6004735598       -2.7169697752
H                -0.9647784631       -4.1848768247        0.5989289769
H                -2.7818296152       -5.4473560267        1.7030524216
H                -5.0878578279       -5.3927901192        0.7700041431
H                -5.5511318505       -4.0685315176       -1.2857631226
H                -3.7295078356       -2.8099410453       -2.3884811399
H                -2.8352848917       -1.2000442465        0.7841482526
H                -1.7303914103       -0.7974581853        2.1094653863
H                -4.2918122561        0.5081960252        0.0015966340
H                -4.9047535105        2.9067859951       -0.1976934641
H                -3.3828285186        4.6578981009        0.6645024517
H                -1.3559051472        4.7005801381        2.8930592253
H                -0.9118294377        5.1958635321        1.2592140124
H                 0.0301649617        3.9481321533        2.0965829189
H                -0.6265419647        1.6152531940        1.9457363210
H                 1.9508625562       -2.3698760548        0.6091102999
H                 1.3925976253       -1.7442465188       -0.9345983512
H                 2.8895345194       -0.4304080928       -2.0660008819
H                 5.4629183427        2.2336352294       -2.4651691938
H                 4.2471903934        1.2602837367       -3.3144312920
H                 5.7766870753        0.5331499566       -2.8217978131
H                 5.7290946872        2.0499487483       -0.0137522649
H                 5.2572059907        2.5376350090        2.4429692003
H                 4.2448959807        1.4112206063        3.3654737466
H                 5.8545616883        0.9224765119        2.8267069022
H                 2.8602045325       -0.2414464094        2.2189397968



