%chk=calculation/no_transfer_pubchem_sampling_6_b3lyp/101021330_rwf.chk
%rwf=calculation/no_transfer_pubchem_sampling_6_b3lyp/101021330_rwf.rwf
%nprocshared=14
%mem=3GB
#p b3lyp/6-31g(d) 6D 10F nosymm GFInput td=(50-50,nstate=2) SCF=XQC 

Gaussian input prepared by ASE

0 1
C                -2.1134388852       -0.4808930196       -0.2861352514
C                -2.9292901141        0.5865252197       -0.1557462807
C                -4.3921574865        0.5079507854       -0.1490406033
C                -5.1506386390        1.6740573971        0.0471811143
C                -6.5477519188        1.6059055581        0.0528068736
C                -7.3809938299        2.8211323433        0.2375531800
C                -8.5726769588        2.7705497274        0.9795346768
C                -9.3546671554        3.9111358669        1.1549891558
C                -8.9622493108        5.1257265540        0.5894518543
C                -7.7808622125        5.1903198821       -0.1517429270
C                -6.9977918611        4.0501169068       -0.3246355537
C                -7.1298016739        0.3457936317       -0.1316744520
C                -6.3104813087       -0.7823046701       -0.3042477358
C                -6.8928871614       -2.1383222781       -0.5073527217
C                -6.1471657685       -3.1261318381       -1.1707961622
C                -6.6762624870       -4.3972997623       -1.3807578659
C                -7.9589819043       -4.7109907903       -0.9250827669
C                -8.7058874925       -3.7418273078       -0.2536814651
C                -8.1777123318       -2.4680237698       -0.0469582616
N                -4.9729608177       -0.6956092616       -0.3216743144
C                -0.6553307890       -0.4905351005       -0.3059179922
C                 0.1438746110        0.6710704246       -0.2496637220
C                 1.5261177538        0.6052232070       -0.2707637591
C                 2.2081906657       -0.6327656375       -0.3455937955
N                 3.6165377395       -0.6676661724       -0.4033539676
C                 4.2384151016       -1.9126309105       -0.8579201842
C                 5.6320414756       -1.7801719202       -1.4828921435
O                 5.6706436206       -1.0372384800       -2.6959247271
C                 6.0105874734        0.3364023912       -2.6011597635
C                 7.4393420504        0.6260749715       -2.1336271312
O                 7.5202046194        0.6792383129       -0.7087172926
C                 8.8487157929        0.8649056660       -0.2371189489
C                 8.8697518758        1.2770552188        1.2324314650
O                 8.5977548783        0.2437877903        2.1642572177
C                 7.2534826774        0.1078691252        2.6183391736
C                 6.6695873804       -1.1887772374        2.0426701618
O                 5.2940998913       -1.4392708060        2.3101677410
C                 4.3711709164       -0.3898789438        2.0315459852
C                 4.3427956860        0.1405425857        0.5837819770
C                 1.4144595149       -1.7951680566       -0.3999898864
C                 0.0249179815       -1.7164786656       -0.3881265930
H                -2.5946213728       -1.4524432404       -0.3828100871
H                -2.5174259473        1.5869886354       -0.0377253219
H                -4.6460066066        2.6209406752        0.2148838559
H                -8.8731322839        1.8351829132        1.4432539137
H               -10.2683095315        3.8522003347        1.7405849396
H                -9.5722128909        6.0147223498        0.7251208952
H                -7.4711970700        6.1291146687       -0.6033343811
H                -6.0929174773        4.1041286957       -0.9233684519
H                -8.2080008402        0.2538611421       -0.1955869659
H                -5.1510406568       -2.8752711541       -1.5182817199
H                -6.0864636049       -5.1458878463       -1.9036322236
H                -8.3709263340       -5.7035083019       -1.0876489366
H                -9.6994385380       -3.9788198515        0.1179100990
H                -8.7624006023       -1.7350508643        0.5012634695
H                -0.3272908198        1.6492814218       -0.2098619714
H                 2.0914534029        1.5317133767       -0.2679415683
H                 3.5882886082       -2.3300914651       -1.6313601914
H                 4.3170641385       -2.6604290795       -0.0492385703
H                 6.3659348352       -1.3929659883       -0.7755405756
H                 5.9445541145       -2.7990493347       -1.7439179810
H                 5.9140537412        0.7116952569       -3.6258124284
H                 5.2987496967        0.8924204167       -1.9769112141
H                 8.1134952084       -0.1473162805       -2.5334766605
H                 7.7627007188        1.5973287404       -2.5449092504
H                 9.4389798558       -0.0543031265       -0.3758882829
H                 9.3373898048        1.6684899319       -0.8145503413
H                 8.1864506533        2.1269720905        1.3769291970
H                 9.8871260414        1.6243554910        1.4540260998
H                 6.6634217215        0.9809783339        2.3143855323
H                 7.2650998414        0.0770636415        3.7151937109
H                 6.8755117251       -1.1809488860        0.9684748511
H                 7.2032049059       -2.0423260102        2.4717315876
H                 4.5515581420        0.4643076419        2.7034843103
H                 3.3912290088       -0.8022638362        2.2920207755
H                 5.3603958393        0.3122509176        0.2272980926
H                 3.8765292598        1.1287352178        0.6203144696
H                 1.8784238260       -2.7741392550       -0.4285580253
H                -0.5529301126       -2.6373183107       -0.4252399580



