%chk=./calculation/no_transfer_pubchem_sampling_6_b3lyp/101021330.chk
%nprocshared=7
%mem=6GB
#p b3lyp/6-31g(d) opt SCF=XQC 

Gaussian input prepared by ASE

0 1
C                -2.0598376494       -0.4843813918       -0.2196692588
C                -2.8201224118        0.6168194266       -0.1093323658
C                -4.2685889387        0.5725974878       -0.1268945195
C                -5.0146791562        1.7462726631        0.0216513522
C                -6.4021789972        1.6812653962       -0.0082498540
C                -7.2233235450        2.8934328397        0.1297747213
C                -8.3735520428        2.8833541784        0.9143648746
C                -9.1424563566        4.0244667000        1.0475441724
C                -8.7785789016        5.1893280442        0.3929551601
C                -7.6384503238        5.2082626754       -0.3929265872
C                -6.8635688782        4.0706178864       -0.5210532321
C                -6.9932508088        0.4313697537       -0.1761080783
C                -6.1780519991       -0.6931010641       -0.3060681036
C                -6.7381289472       -2.0408751378       -0.4934800057
C                -5.9942529236       -2.9947937112       -1.1854222104
C                -6.4927902064       -4.2677289626       -1.3822329321
C                -7.7398658931       -4.6103969030       -0.8851286327
C                -8.4810471540       -3.6736081585       -0.1847490755
C                -7.9860770060       -2.3972775775        0.0107012110
N                -4.8542060185       -0.6127893625       -0.2893202596
C                -0.6187818857       -0.5564729802       -0.2172285693
C                 0.2147433947        0.5650279358       -0.1393056856
C                 1.5835202054        0.4405431386       -0.1391852419
C                 2.2056995242       -0.8136086410       -0.2138774291
N                 3.5939814541       -0.8915890354       -0.2573650605
C                 4.1948679616       -2.0855984417       -0.8167841759
C                 5.5176859850       -1.8438772788       -1.5621910939
O                 5.4038306762       -1.0421921505       -2.7219850359
C                 5.5641071522        0.3422511527       -2.5337666724
C                 6.9865932818        0.7515842649       -2.1137287995
O                 7.0743761055        0.8649667582       -0.7052162804
C                 8.3575482294        1.2422789566       -0.2476469126
C                 8.2999379883        1.7145246226        1.2148722635
O                 8.4713497884        0.7214292115        2.1962326392
C                 7.3091542014        0.0613434681        2.6540014875
C                 7.0035924018       -1.1893865886        1.8152228983
O                 5.7664275905       -1.8255759366        2.0611937626
C                 4.5951594439       -1.0327434241        2.0493288765
C                 4.3359567319       -0.1963355773        0.7759275577
C                 1.3749432386       -1.9364664686       -0.2972689131
C                 0.0038376253       -1.8054629637       -0.2995041231
H                -2.5806904530       -1.4281287617       -0.3168159839
H                -2.3841977285        1.5997805063        0.0015137810
H                -4.5134885195        2.6909655392        0.1722891784
H                -8.6527058228        1.9808646427        1.4389445343
H               -10.0288966887        4.0058192717        1.6649497540
H                -9.3816421128        6.0795040171        0.4949260364
H                -7.3527273073        6.1135613180       -0.9088270770
H                -5.9829760959        4.0851840066       -1.1470574536
H                -8.0661675511        0.3453931192       -0.2476854630
H                -5.0245744013       -2.7130183397       -1.5654021384
H                -5.9092929001       -4.9974531243       -1.9249633701
H                -8.1314016444       -5.6055124175       -1.0383962195
H                -9.4492813786       -3.9403561471        0.2142572501
H                -8.5660587381       -1.6837844159        0.5776052525
H                -0.2176104390        1.5528475255       -0.0931215551
H                 2.1875199591        1.3359037515       -0.1085858299
H                 3.4933712414       -2.4896285733       -1.5482976715
H                 4.3959970507       -2.8462295094       -0.0482192052
H                 6.2762703703       -1.4393858733       -0.8930164377
H                 5.8644926268       -2.8194276531       -1.9180224688
H                 5.3475405697        0.7740108561       -3.5134169759
H                 4.8459464969        0.7346481808       -1.8059381573
H                 7.7030448294        0.0041622122       -2.4839698994
H                 7.2392517484        1.7222196699       -2.5648166676
H                 9.0629548524        0.4041746191       -0.3394478822
H                 8.7262308823        2.0744990659       -0.8643663683
H                 7.3554644329        2.2540568191        1.3659769704
H                 9.1331145944        2.4061111204        1.3718749242
H                 6.4588442904        0.7540451433        2.6301880758
H                 7.5086813216       -0.2174466320        3.6928302324
H                 7.0955843602       -0.9061848525        0.7623412495
H                 7.7504468095       -1.9590750027        2.0248231199
H                 4.5920224494       -0.3610752776        2.9192848680
H                 3.7828541443       -1.7525926331        2.1853838676
H                 5.2824450207        0.1613696609        0.3704588875
H                 3.7528106308        0.6740003551        1.0764880608
H                 1.8008372404       -2.9272696856       -0.3343577175
H                -0.6095350778       -2.6940293070       -0.3517983692



