%chk=calculation/no_transfer_pubchem_sampling_6_b3lyp/101180576_rwf.chk
%rwf=calculation/no_transfer_pubchem_sampling_6_b3lyp/101180576_rwf.rwf
%nprocshared=14
%mem=3GB
#p b3lyp/6-31g(d) 6D 10F nosymm GFInput td=(50-50,nstate=2) SCF=XQC 

Gaussian input prepared by ASE

0 1
C                -6.7748627589        1.2423245631       -0.9378751796
C                -5.3029686816        1.1088671506       -0.6280722105
C                -4.8609368716        0.6724270326        0.6208032565
C                -3.5046214959        0.5206072611        0.9282374219
C                -3.1510492263        0.0820367815        2.3345830549
C                -2.5301545931        0.7878724467       -0.0711628017
C                -1.0932584624        0.5954259128        0.2059834782
P                -0.0987480902        1.2605122517        1.4291722567
C                 1.2292688677        0.0362018531        0.8151903377
C                 2.6953096798        0.3872529197        0.7728765183
C                 3.6085180154       -0.3942353862        1.5250161536
C                 3.1627935349       -1.5593172834        2.3868773463
C                 4.9735097568       -0.0895274641        1.5010124162
C                 5.4837084608        0.9736248303        0.7565094429
C                 6.9652008138        1.2653804539        0.7149919464
C                 4.5730739535        1.7489714857        0.0366635885
C                 3.1999997172        1.4852492163        0.0316679278
C                 2.3079632953        2.4128109439       -0.7649827544
P                 0.1945193558       -0.2963685713       -0.7515094333
C                -0.2502727536       -2.1580101942       -0.7954707026
C                 1.0499832849       -2.9035158486       -1.1539952800
C                -1.2735723540       -2.3315893258       -1.9364312879
C                -0.8407125957       -2.7125620208        0.5090263096
C                -2.9671413864        1.2521700630       -1.3426422013
C                -1.9969116075        1.6405755525       -2.4371098905
C                -4.3327464389        1.4077586837       -1.5876184522
H                -7.1575112141        0.3479062269       -1.4480785943
H                -6.9703668683        2.0964015855       -1.5958029008
H                -7.3663489618        1.3745768949       -0.0258523136
H                -5.5951949864        0.4489965646        1.3923423867
H                -4.0359563631       -0.3206422448        2.8378742941
H                -2.7844272679        0.9193489503        2.9394885998
H                -2.3703922765       -0.6838663045        2.3536576906
H                 1.0864457976       -0.8370355842        1.4517475064
H                 2.4480925437       -1.2536242978        3.1614569052
H                 4.0217472865       -2.0055236397        2.8969847393
H                 2.6846115705       -2.3568920105        1.8036810179
H                 5.6562632033       -0.7025653117        2.0864163414
H                 7.4726944157        0.8918034068        1.6108167713
H                 7.4423624182        0.7886348196       -0.1520973770
H                 7.1605479085        2.3408179635        0.6390490177
H                 4.9398832000        2.5956342993       -0.5408329728
H                 1.6182225904        2.9693772691       -0.1195069541
H                 1.7013208105        1.8703542960       -1.4976939087
H                 2.9095126972        3.1478405701       -1.3087203406
H                 1.4813774789       -2.5365995474       -2.0923640798
H                 1.8116459927       -2.7999424829       -0.3725514458
H                 0.8449298669       -3.9756513859       -1.2763963136
H                -2.2050719439       -1.7916432474       -1.7324025211
H                -0.8744552639       -1.9765827480       -2.8935457622
H                -1.5255109249       -3.3945479904       -2.0538945149
H                -1.0349149611       -3.7893062033        0.4046277077
H                -0.1618846964       -2.5896166287        1.3607060569
H                -1.7900694432       -2.2278382450        0.7560937985
H                -1.5243611699        0.7693653709       -2.9042586073
H                -1.1857223935        2.2704199712       -2.0568921920
H                -2.5167252768        2.1949604453       -3.2248936931
H                -4.6466331888        1.7804959308       -2.5609006031



