%chk=./calculation/no_transfer_pubchem_sampling_6_b3lyp/101180576.chk
%nprocshared=7
%mem=6GB
#p b3lyp/6-31g(d) opt SCF=XQC 

Gaussian input prepared by ASE

0 1
C                -6.6337836388        1.2400332859       -0.9234464447
C                -5.1786159262        1.0725749342       -0.6088451940
C                -4.7629058345        0.7127468435        0.6643275048
C                -3.4230914591        0.5692399424        0.9840929329
C                -3.0509614565        0.2178380815        2.3933568829
C                -2.4489362859        0.7622451261       -0.0118163734
C                -1.0506315364        0.5141586368        0.2741779287
P                -0.0640748662        1.0424566176        1.5685543492
C                 1.2273517159       -0.1092675326        0.7994159401
C                 2.6586490371        0.2971266097        0.7675767885
C                 3.5954818848       -0.4056000245        1.5414131042
C                 3.1955204149       -1.5441884003        2.4387466951
C                 4.9318098457       -0.0406559653        1.5039055465
C                 5.3786102450        1.0172096146        0.7278321156
C                 6.8322914969        1.3783257176        0.6807112863
C                 4.4420268395        1.7228234261       -0.0083129188
C                 3.0966464477        1.3852669140        0.0019827164
C                 2.1522258261        2.2096329790       -0.8186134465
P                 0.2097289649       -0.2571602282       -0.7868816969
C                -0.2973199657       -2.0915494259       -0.8419669777
C                 0.9847230243       -2.8823721783       -1.1004010747
C                -1.2413933954       -2.2266021206       -2.0380201753
C                -1.0092592430       -2.5938220401        0.4103472974
C                -2.8580176743        1.1661405214       -1.2947654701
C                -1.8604136860        1.4964443944       -2.3641442281
C                -4.2072184710        1.3137426873       -1.5685416089
H                -6.8222127339        1.0850014474       -1.9833925998
H                -6.9567915747        2.2497650584       -0.6666829281
H                -7.2372462157        0.5392607905       -0.3504297517
H                -5.5054564477        0.5444724429        1.4322837871
H                -3.9252616608       -0.1248038454        2.9422808463
H                -2.6510653252        1.0957359104        2.9025048224
H                -2.2888445891       -0.5599428411        2.4295998166
H                 1.1307297716       -1.0541819322        1.3353446712
H                 2.4308472925       -1.2309386767        3.1498458423
H                 4.0568248283       -1.8943966573        3.0023742794
H                 2.8094052448       -2.3879550216        1.8651243676
H                 5.6444718633       -0.5928438196        2.1010493397
H                 7.3196934372        1.1494775333        1.6258875516
H                 7.3326233486        0.8081668502       -0.1031199636
H                 6.9622967567        2.4359709628        0.4630423554
H                 4.7655614423        2.5632125444       -0.6069065386
H                 1.2311835606        2.4166466259       -0.2710963829
H                 1.8905617813        1.6898242177       -1.7413654490
H                 2.6120028442        3.1588528587       -1.0847268356
H                 1.4892924241       -2.5063460694       -1.9900945642
H                 1.6752434091       -2.7984697466       -0.2629675076
H                 0.7585521130       -3.9370281006       -1.2538191180
H                -2.1457284374       -1.6394006800       -1.8804601595
H                -0.7564665442       -1.8847837769       -2.9520608973
H                -1.5315922544       -3.2676696651       -2.1761307057
H                -1.2195080133       -3.6584857681        0.3081069334
H                -0.4073121605       -2.4607452897        1.3078054845
H                -1.9560997374       -2.0744964430        0.5449005717
H                -1.4182664413        0.5913554784       -2.7822908235
H                -1.0536761229        2.1100012160       -1.9636896593
H                -2.3427140772        2.0405941008       -3.1732160419
H                -4.5094880855        1.6273618793       -2.5583872222



