%chk=calculation/no_transfer_pubchem_sampling_6_b3lyp/101160987_rwf.chk
%rwf=calculation/no_transfer_pubchem_sampling_6_b3lyp/101160987_rwf.rwf
%nprocshared=14
%mem=3GB
#p b3lyp/6-31g(d) 6D 10F nosymm GFInput td=(50-50,nstate=2) SCF=XQC 

Gaussian input prepared by ASE

0 1
C                 1.0490181170       -0.7714385001       -4.3299027536
C                 0.5228328172        0.0056963515       -3.1567013224
C                 0.3934108788       -0.4755098295       -1.9127206374
C                -0.1069769787        0.2719904525       -0.6989845218
Si               -1.6033164690       -0.6636166551        0.0696727874
C                -1.2315176397       -2.5188010685        0.1583977976
C                -2.0437033241       -0.0508894838        1.8111892660
C                -2.7675484187        1.1426700902        1.9973720818
C                -3.0834240051        1.6128457040        3.2726436132
C                -2.6869210955        0.8917836085        4.4010447986
C                -1.9789424748       -0.3007520569        4.2438510167
C                -1.6640619082       -0.7636708561        2.9637193526
C                -3.1531462072       -0.3904654176       -0.9946373884
C                -3.1185413066        0.1445031844       -2.2949318171
C                -4.2842418997        0.3050973434       -3.0479693617
C                -5.5183929976       -0.0711886201       -2.5177379602
C                -5.5800868715       -0.6070531155       -1.2296967099
C                -4.4126399485       -0.7599346759       -0.4814654966
Si                1.3760811562        0.7114482431        0.4553677295
C                 0.8661198031        1.9272757132        1.8133633100
C                 2.6923562203        1.5999355710       -0.5865973866
C                 4.0588267657        1.2772794884       -0.5145182440
C                 5.0167085996        1.9933496078       -1.2372970509
C                 4.6282486144        3.0560097477       -2.0526803260
C                 3.2773176524        3.4001494733       -2.1382753982
C                 2.3278031594        2.6799163030       -1.4136273009
C                 2.1286066036       -0.8496264381        1.2238838866
C                 2.0447676801       -1.0907470953        2.6080806252
C                 2.5764851965       -2.2484047571        3.1815928395
C                 3.2105043808       -3.1982065478        2.3799875002
C                 3.3130976585       -2.9811869117        1.0043711064
C                 2.7801419983       -1.8220522062        0.4380608091
H                 0.3111042918       -0.8235067761       -5.1424530093
H                 1.9468316631       -0.2982870398       -4.7506611273
H                 1.3097850978       -1.7974481625       -4.0473485290
H                 0.2408759919        1.0413400687       -3.3558842186
H                 0.6964655071       -1.5094414015       -1.7390947972
H                -0.4936433497        1.2533747675       -1.0199197186
H                -1.1307106306       -2.9409815031       -0.8473076363
H                -2.0519535063       -3.0493593906        0.6553555441
H                -0.3066540697       -2.7329302837        0.7055993096
H                -3.1011414875        1.7106046474        1.1315764713
H                -3.6422077863        2.5385241842        3.3865718938
H                -2.9338027575        1.2540674393        5.3958166856
H                -1.6754543532       -0.8732179728        5.1171059880
H                -1.1095068021       -1.6936497412        2.8666054194
H                -2.1679062097        0.4287189402       -2.7353874020
H                -4.2267779296        0.7230931391       -4.0501965982
H                -6.4264117076        0.0524333371       -3.1027225732
H                -6.5376186832       -0.9009877226       -0.8065838598
H                -4.4874833082       -1.1633318697        0.5263178035
H                 1.7550368404        2.2582527517        2.3636172904
H                 0.1489120995        1.5145908927        2.5272371588
H                 0.4112347268        2.8197724941        1.3670027653
H                 4.3849841667        0.4535486796        0.1150024426
H                 6.0663984009        1.7196842684       -1.1620888702
H                 5.3714333923        3.6142784140       -2.6164963667
H                 2.9647869560        4.2287303231       -2.7692945876
H                 1.2817908652        2.9699743062       -1.4979277021
H                 1.5547301109       -0.3663821496        3.2531928678
H                 2.4977903649       -2.4061884894        4.2544938019
H                 3.6255946580       -4.0996133750        2.8236434037
H                 3.8106959324       -3.7131249332        0.3729365403
H                 2.8839577584       -1.6689434888       -0.6335582339



