%chk=./calculation/no_transfer_pubchem_sampling_6_b3lyp/101817164.chk
%nprocshared=7
%mem=6GB
#p b3lyp/6-31g(d) opt SCF=XQC 

Gaussian input prepared by ASE

0 1
C                 2.0190448246        0.5057985352        4.4573393790
C                 3.0804772151        0.5133144879        3.3402692526
C                 4.2561361129       -0.2827119012        3.9223983695
C                 3.4736521761        1.9925457699        3.1738316743
C                 2.4969616692        0.0532041895        1.9861966430
C                 1.1413098046       -0.2552672349        1.9644732810
C                 0.4972125492       -0.5768378424        0.7931106218
C                 0.9990070723       -0.2039635188       -0.4496354611
C                 0.1800153705       -0.8209353564       -1.6391494003
C                 0.6766041300       -0.4276842788       -3.0226589011
C                 0.6296025158       -2.2903629182       -1.4531509283
C                -1.3191912446       -0.5587369410       -1.3142034048
C                -1.7961949361        0.8061190510       -1.2112375872
C                -2.1670067011        1.6062687592       -2.4895370133
C                -3.5829542361        2.1797830367       -2.2576985067
C                -1.2735487143        2.7272777152       -3.0412001736
C                -2.3944723435        0.6281923892       -3.6558208869
C                -2.3362514547        1.1365762624        0.0464189106
C                -2.3762333272        2.4946754036        0.7802648397
C                -3.8032240143        2.8661096707        1.2092890817
C                -1.4992168923        2.3209409589        2.0433315449
C                -1.7553433108        3.7047601911        0.0767581289
C                -2.7144846048        0.0825411469        0.8681698620
C                -2.7951057017       -1.2549941840        0.4869773315
C                -3.4575618492       -2.1048377885        1.6045824904
C                -4.9594845954       -1.7773367137        1.6653739127
C                -2.8306356138       -1.6979256907        2.9664545896
C                -3.2840542057       -3.6290519599        1.5982754942
C                -2.1188696733       -1.5893835101       -0.7104666888
C                -2.4666945346       -2.8459666974       -1.5482955586
C                -2.1509218534       -2.7138498572       -3.0512600784
C                -1.8599559496       -4.1892212068       -1.0895110894
C                -4.0106834173       -2.9099755206       -1.5686771300
C                 2.3015522502        0.3497468085       -0.4432031744
C                 2.7391692314        1.5389362013       -1.3324077620
C                 1.5092184741        2.4624606496       -1.2545032702
C                 3.1538007998        1.3659954834       -2.8103247495
C                 3.8511938622        2.3619592564       -0.6546704282
C                 3.1232914329        0.1062961059        0.7164480808
C                 4.5232225184       -0.4928110538        0.4571225455
C                 4.7819323819       -0.7896233497       -1.0289972010
C                 5.7830701281        0.2189739930        0.9873158726
C                 4.3969193233       -1.9076125868        1.0736854878
H                 2.4698712112        0.8988765072        5.3671407453
H                 1.1701794360        1.1394106994        4.2131577671
H                 1.6703574938       -0.5012914151        4.6742484755
H                 4.5808808639        0.1968045846        4.8454029272
H                 5.1103330551       -0.3345257156        3.2637759911
H                 3.9378265516       -1.2931998670        4.1742265883
H                 3.7902989502        2.4059219617        4.1299333067
H                 2.6160597347        2.5645316264        2.8229245563
H                 4.2832373215        2.1299122866        2.4654968735
H                 0.5811736643       -0.3721147883        2.8735893481
H                -0.4656616031       -1.0431700031        0.8654694366
H                 0.5212798345        0.6186162830       -3.2393085053
H                 0.1800335876       -1.0182206177       -3.7906750313
H                 1.7338142084       -0.6547668245       -3.0912309015
H                 0.2044203756       -2.7235699465       -0.5572219538
H                 0.3972609857       -2.9202972294       -2.3036826463
H                 1.7137560465       -2.3032925031       -1.3416528625
H                -4.0162552586        2.4611966579       -3.2169100078
H                -4.2240299597        1.4261343321       -1.8050809282
H                -3.5929410943        3.0572277232       -1.6285099521
H                -0.9269246055        3.4150362725       -2.2834378281
H                -1.8494402161        3.2975694369       -3.7693212637
H                -0.4103249589        2.3252094928       -3.5643782827
H                -2.6604696323        1.1921514013       -4.5493234519
H                -3.2261646436       -0.0295476056       -3.4197535113
H                -1.5259005451        0.0319891242       -3.8848983515
H                -3.7854906598        3.7871351495        1.7896525869
H                -4.2528855895        2.0920319853        1.8247614979
H                -4.4469908577        3.0198679758        0.3473479099
H                -1.9184057018        1.6230378967        2.7598140270
H                -0.5130126731        1.9589178740        1.7594513816
H                -1.3863622416        3.2780955619        2.5496920971
H                -1.7196841449        4.5351510598        0.7818452413
H                -0.7372349746        3.4808082909       -0.2209947622
H                -2.3181391126        4.0507462296       -0.7807189020
H                -3.1029165452        0.3462635139        1.8296826836
H                -5.1209091717       -0.7023810449        1.6872966746
H                -5.3976328581       -2.2087541318        2.5641362429
H                -5.4955796558       -2.1725979334        0.8066361396
H                -3.0104546493       -2.4812386576        3.7000755929
H                -1.7554362096       -1.5657050113        2.8711277971
H                -3.2576471999       -0.7875693085        3.3767796752
H                -2.2423932889       -3.8873878109        1.7731208736
H                -3.6226395811       -4.1228221760        0.7004885419
H                -3.8654189857       -4.0391995208        2.4242618418
H                -2.7823710768       -1.9660196964       -3.5158448284
H                -1.1242555970       -2.4708701307       -3.2696290620
H                -2.3744692947       -3.6682458141       -3.5278845951
H                -1.0625197489       -4.4979138205       -1.7602087514
H                -1.4421166076       -4.1382835117       -0.0923454627
H                -2.6136088553       -4.9740765264       -1.1092308755
H                -4.4110631421       -1.9475655883       -1.8839529640
H                -4.3327775709       -3.6633911910       -2.2866052176
H                -4.4514581626       -3.1493163933       -0.6143399926
H                 0.6066939220        1.9334289787       -1.5299732716
H                 1.3906047974        2.8120179732       -0.2298123818
H                 1.6430677447        3.3295384268       -1.8996413793
H                 2.3432827162        1.6237592217       -3.4838895071
H                 3.4866002050        0.3630138973       -3.0495450406
H                 3.9766084822        2.0425996975       -3.0351603460
H                 3.8806251507        3.3483055821       -1.1178008826
H                 3.6425677508        2.4955436407        0.4016654763
H                 4.8340085937        1.9234728481       -0.7609313499
H                 5.6351942604       -1.4635221544       -1.1016623479
H                 3.9249355860       -1.2838708767       -1.4803622203
H                 5.0218362244        0.0962361622       -1.6014054265
H                 6.4715734282       -0.5061105588        1.4179314946
H                 5.5649606267        0.9694435227        1.7350494792
H                 6.3149060060        0.7158554141        0.1783572150
H                 3.5908918145       -2.4469997330        0.5786516234
H                 5.3205025991       -2.4647853566        0.9230590118
H                 4.1710317765       -1.8866207837        2.1295969243



