%chk=./calculation/no_transfer_pubchem_sampling_6_b3lyp/102339158.chk
%nprocshared=7
%mem=6GB
#p b3lyp/6-31g(d) opt SCF=XQC 

Gaussian input prepared by ASE

0 1
C                 6.5593173919        1.1633387389        0.8246245139
N                 5.7683376072        2.2182093130        1.4229308394
C                 6.5841904362        3.3716281743        1.7336566806
C                 4.6378888861        2.5727490865        0.5787880458
C                 3.6455239908        1.4463504715        0.4931767771
C                 3.0902779517        1.0596445564       -0.7182732513
C                 2.1670627339        0.0324094231       -0.7762405156
C                 1.7851305072       -0.6451819043        0.3782960572
C                 0.8125592178       -1.7468921360        0.3142380167
C                 1.0026660276       -2.8945186376        1.0894485030
C                 0.1176093221       -3.9616651946        1.0660738773
C                -0.9741616464       -3.8452916715        0.2347859871
O                -2.0010001843       -4.7275270050        0.0195968172
C                -2.8428513724       -4.1693656339       -0.8859726324
O                -3.8594374520       -4.6685794118       -1.2867876794
N                -2.3508570374       -2.9330527817       -1.2419370765
C                -2.9545162169       -2.0772546911       -2.2258774556
C                -3.2474262310       -0.6661723861       -1.6962683265
O                -2.6996071474        0.2912339929       -2.2048744911
N                -4.1146250202       -0.5661164079       -0.6614497692
C                -4.7273400379       -1.6988641947        0.0014364627
C                -4.3939622637        0.7152646131       -0.1109135406
C                -4.7479864952        1.7742992970       -0.9371094733
C                -5.0335250357        3.0108357500       -0.3871145706
C                -4.9771602510        3.1984907166        0.9833861637
C                -4.6274427033        2.1418516901        1.8065412005
C                -4.3343288460        0.9034283441        1.2650553237
C                -1.1753784644       -2.7053473003       -0.5518143262
C                -0.2967366993       -1.6430754216       -0.5269470762
C                 2.3480747795       -0.2573831973        1.5933779374
C                 3.2596885541        0.7771201655        1.6491624079
H                 5.9206938502        0.3030633829        0.6312337516
H                 7.0286498557        1.4730696278       -0.1233417029
H                 7.3435377686        0.8680837508        1.5201851774
H                 5.9754461258        4.1170794297        2.2440225849
H                 7.0297016840        3.8349810523        0.8384284483
H                 7.3892280980        3.0658882757        2.4004973594
H                 4.9602936997        2.8673784868       -0.4369221317
H                 4.1438399605        3.4378868798        1.0349674365
H                 3.3818380318        1.5658762870       -1.6277210092
H                 1.7570531881       -0.2635550285       -1.7302549884
H                 1.8795615015       -2.9600088336        1.7144198830
H                 0.2734311186       -4.8436083031        1.6645758370
H                -3.8674994297       -2.5699620977       -2.5728506213
H                -2.2735986238       -1.9506441454       -3.0754530799
H                -5.6368016878       -1.3580930851        0.4948450609
H                -4.9974167175       -2.4758393467       -0.7117477755
H                -4.0667080668       -2.1356964467        0.7560360766
H                -4.7928076430        1.6289151990       -2.0040266196
H                -5.3078902524        3.8300987262       -1.0344458899
H                -5.2038334196        4.1643146103        1.4090740725
H                -4.5769447583        2.2810317908        2.8762636931
H                -4.0492438825        0.0877649718        1.9121616307
H                -0.4727639859       -0.7571806475       -1.1151822269
H                 2.0476088639       -0.7560392164        2.5032263549
H                 3.6946414189        1.0746283222        2.5909152516



