%chk=calculation/no_transfer_pubchem_sampling_6_b3lyp/102546492_rwf.chk
%rwf=calculation/no_transfer_pubchem_sampling_6_b3lyp/102546492_rwf.rwf
%nprocshared=14
%mem=3GB
#p b3lyp/6-31g(d) 6D 10F nosymm GFInput td=(50-50,nstate=2) SCF=XQC 

Gaussian input prepared by ASE

0 1
C                 1.8144467743       -1.6725086835        1.9247246418
C                 1.0675140333       -0.5517867453        1.2425937734
N                -0.2393615895       -0.7754688270        1.0511972838
C                -1.0143174148        0.1423783531        0.4506335850
N                -2.3586384790       -0.2081112540        0.2790155747
C                -2.7205104527       -1.6250081998        0.1534141675
C                -3.2678742091       -1.8835165127       -1.2523655236
C                -4.5318643270       -1.0449446815       -1.4802993053
C                -4.4473766760        0.3427892020       -0.8669789755
C                -5.4709195299        1.2663679754       -1.1123388170
C                -5.4730989782        2.5351523440       -0.5405155746
C                -4.4342641574        2.8903529997        0.3236248607
C                -3.4106262163        1.9894274034        0.5924126172
C                -3.3848777918        0.7195642544       -0.0158103089
C                -0.4783973074        1.3618558343       -0.0043644421
C                 0.8699417272        1.5965949831        0.2152923240
C                 1.6878918603        0.6509588778        0.8436897429
C                 3.1621296794        0.9671255946        1.0389661612
O                 3.4617975872        0.9133099070        2.4355198375
C                 4.1019472396        0.0943700977        0.1981987377
C                 4.0849369374        0.2132188391       -1.1987456881
C                 4.9494283910       -0.5404099832       -1.9895665543
C                 5.8520570832       -1.4268835387       -1.3948860852
C                 5.8773621388       -1.5512536622       -0.0068234872
C                 5.0074398835       -0.7952007919        0.7843939885
H                 2.3843838708       -1.2999074998        2.7798804521
H                 2.5289934749       -2.1448671290        1.2399201526
H                 1.0981322158       -2.4267333165        2.2570655174
H                -3.4773592150       -1.8727737256        0.9107027246
H                -1.8298189399       -2.2125869470        0.3675544729
H                -2.4916537878       -1.6180597501       -1.9809795810
H                -3.4877052499       -2.9494676741       -1.3866539315
H                -5.3931932317       -1.5659268359       -1.0369353427
H                -4.7519526414       -0.9650612709       -2.5525742156
H                -6.2841281902        0.9725982044       -1.7737002591
H                -6.2778919163        3.2325656625       -0.7548888425
H                -4.4284313077        3.8646810759        0.8051752017
H                -2.6257940922        2.2567513852        1.2917790307
H                -1.0894763301        2.0895290209       -0.5230457471
H                 1.3025711870        2.5366187936       -0.1218303827
H                 3.3003685406        2.0021725470        0.6863564759
H                 4.3878682246        1.1858295146        2.5412333290
H                 3.3842345045        0.8995127841       -1.6693860388
H                 4.9215254643       -0.4348406857       -3.0710418038
H                 6.5283953192       -2.0137602321       -2.0105247504
H                 6.5729555213       -2.2394780184        0.4666668982
H                 5.0232093734       -0.9051686891        1.8642431058



