%chk=calculation/no_transfer_pubchem_sampling_6_b3lyp/1035643_rwf.chk
%rwf=calculation/no_transfer_pubchem_sampling_6_b3lyp/1035643_rwf.rwf
%nprocshared=14
%mem=3GB
#p b3lyp/6-31g(d) 6D 10F nosymm GFInput td=(50-50,nstate=2) SCF=XQC 

Gaussian input prepared by ASE

0 1
N                -1.0168932618        5.2756846724       -0.4353294598
C                -1.3846599056        4.1854487437       -0.2399921734
C                -1.8454887126        2.8752435643        0.0485636052
C                -2.3203418112        2.6381763982        1.3018616082
N                -2.4618079115        3.5476605974        2.3139094453
O                -2.7894727127        1.4131693788        1.6971574653
C                -2.9865845484        0.4498969897        0.7394497315
C                -2.5614887272        0.5920623260       -0.5402733191
C                -2.8951618355       -0.4331120061       -1.5261882590
O                -2.6530841055       -0.3700104644       -2.7087415659
O                -3.5574078656       -1.5680717766       -1.0614280923
C                -3.9380742831       -1.7188605336        0.2388580220
C                -4.5991833195       -2.9000336790        0.5813590531
C                -5.0187089086       -3.0850673458        1.8937017796
C                -4.7855136144       -2.0997291862        2.8650112539
C                -4.1277961890       -0.9271951323        2.5213574721
C                -3.6908179254       -0.7230577207        1.2001527420
C                -1.7503335484        1.7836691496       -1.0087737443
C                -0.3028099551        1.3905536126       -1.3282774474
C                 0.1305568039        1.2916485360       -2.6572600755
C                 1.4376347726        0.9303265343       -2.9588670534
C                 2.3471159544        0.6527001141       -1.9298383867
O                 3.6120605950        0.3180566529       -2.3365418120
C                 4.6466797488        0.1907374209       -1.3648117389
C                 4.6380903093       -1.1255154490       -0.6095372634
C                 4.1550975059       -2.2944268572       -1.2083977232
C                 4.2041957398       -3.5092147670       -0.5242993631
C                 4.7438612676       -3.5718202716        0.7622608208
C                 5.2295779322       -2.4101162830        1.3644739531
C                 5.1719221049       -1.1935408869        0.6825679515
C                 1.9286869810        0.7336895600       -0.5966717718
C                 0.6126564570        1.1029571914       -0.3133116649
H                -2.4973410642        3.1685329676        3.2505804310
H                -1.9427923820        4.4107738650        2.2137729508
H                -4.7722924389       -3.6447088372       -0.1881639824
H                -5.5339877428       -4.0019033946        2.1649555433
H                -5.1200361993       -2.2533179586        3.8863483682
H                -3.9420535477       -0.1576658966        3.2623239772
H                -2.1985467817        2.1456565115       -1.9417841223
H                -0.5686287853        1.4909121492       -3.4638659796
H                 1.7786888400        0.8624032659       -3.9871306030
H                 5.5683273212        0.2782178184       -1.9513852745
H                 4.6213591744        1.0388142017       -0.6671004078
H                 3.7327772532       -2.2435375155       -2.2074154192
H                 3.8204789381       -4.4091824684       -0.9976982083
H                 4.7823279673       -4.5192151444        1.2932237424
H                 5.6463883952       -2.4479799292        2.3675740730
H                 5.5457643790       -0.2893120374        1.1596110342
H                 2.6036364197        0.4956656084        0.2167949385
H                 0.3034222217        1.1683777119        0.7272149493



