%chk=./calculation/no_transfer_pubchem_sampling_6_b3lyp/10543583.chk
%nprocshared=7
%mem=6GB
#p b3lyp/6-31g(d) opt SCF=XQC 

Gaussian input prepared by ASE

0 1
C                -3.2633239425        2.9213742545       -0.7656737840
C                -2.7217235209        1.8304565643       -0.2599544316
C                -2.9279883647        1.3608949599        1.1507079856
C                -3.5768842107        0.0025389612        1.1554083670
C                -4.9238050621       -0.1591492407        1.4153760300
C                -5.5179977105       -1.4170308381        1.3997461050
C                -4.7606170475       -2.5307194000        1.1210094935
C                -3.3971619069       -2.4053578282        0.8490054862
C                -2.5736037266       -3.5944485811        0.5508218537
O                -3.0270690973       -4.7285909155        0.5314770516
C                -1.1857894198       -3.2762261025        0.2847721212
C                -0.7114430137       -2.0036544991        0.3141537111
C                 0.6685985616       -1.6778830591        0.0340629944
C                 1.1413108065       -0.4192810049        0.0122811923
C                 2.4963472104       -0.0042937913       -0.2641099598
C                 3.5438321199       -0.9010279822       -0.5131253287
C                 4.8149840071       -0.4493145478       -0.7707094548
C                 5.0978356244        0.9207580241       -0.7922170749
O                 6.3850612022        1.2556063725       -1.0571427332
C                 6.7383260626        2.6178095247       -1.0937301779
C                 4.0676619405        1.8245945740       -0.5461977663
C                 2.7935809974        1.3603694510       -0.2869523388
O                -1.4940706982       -0.9416449240        0.6002588025
C                -2.8126324863       -1.1371367304        0.8617126547
H                -3.0947734577        3.2213780223       -1.7859158958
H                -3.8960773306        3.5667243359       -0.1781173981
H                -2.0935172191        1.1946015524       -0.8694842717
H                -1.9565003580        1.2913795616        1.6485900850
H                -3.5527656651        2.0725042961        1.6916705637
H                -5.5223101957        0.7122654570        1.6373916140
H                -6.5724912910       -1.5131993923        1.6087250618
H                -5.1865032789       -3.5221660625        1.1029255782
H                -0.5212902745       -4.0925116698        0.0518244150
H                 1.3024698030       -2.5266112093       -0.1689372585
H                 0.4478873765        0.3871461300        0.2157064100
H                 3.3582764899       -1.9632423038       -0.5014916762
H                 5.6232374795       -1.1375176738       -0.9618087750
H                 6.5643126554        3.1038961028       -0.1285309785
H                 6.1911366636        3.1537342898       -1.8757295969
H                 7.8029380580        2.6396002073       -1.3204816278
H                 4.2476394271        2.8881647224       -0.5542086950
H                 2.0049027926        2.0752083926       -0.0988443530



