%chk=./calculation/no_transfer_pubchem_sampling_6_b3lyp/107388277.chk
%nprocshared=7
%mem=6GB
#p b3lyp/6-31g(d) opt SCF=XQC 

Gaussian input prepared by ASE

0 1
C                 4.7306016791        0.7586166958        1.3726352211
C                 4.5907308863        1.5310410829        0.2325556896
C                 3.8341537516        1.0682385296       -0.8297227261
C                 3.2147153112       -0.1730118808       -0.7682262142
C                 2.3552481295       -0.6555290416       -1.9036673865
C                 0.8927099154       -0.2682344374       -1.6700465744
O                 0.4244017432       -0.9981295986       -0.5551594248
C                -0.8312718021       -0.7632691012       -0.1073381780
C                -1.2186156611       -1.5015725933        1.0441878983
N                -2.3809878800       -1.4142770503        1.6092457161
C                -3.2999039769       -0.5722618025        1.0869106677
C                -4.5641342620       -0.4782735444        1.7002532538
C                -5.5146339954        0.3644024236        1.1931057913
C                -5.2418772726        1.1437039993        0.0582536286
C                -4.0227957596        1.0731864814       -0.5577606336
C                -3.0215651843        0.2157491302       -0.0616125275
C                -1.7472709553        0.1002358024       -0.6574398527
C                 3.3595618327       -0.9409282058        0.3794769203
C                 4.1118722965       -0.4779307096        1.4441336425
H                 5.3200301573        1.1194938917        2.2026596338
H                 5.0710783069        2.4968028798        0.1704051943
H                 3.7268757279        1.6757784364       -1.7179354701
H                 2.6819687058       -0.2113136077       -2.8451633467
H                 2.4137322052       -1.7417936422       -1.9849464337
H                 0.2907151417       -0.5108559622       -2.5577059907
H                 0.8190662993        0.8105129875       -1.4740537104
H                -0.5042250360       -2.1832954239        1.4858567708
H                -4.7501607987       -1.0871379496        2.5709455064
H                -6.4845877953        0.4369822716        1.6626050221
H                -6.0061508343        1.8029940050       -0.3269467830
H                -3.8105111892        1.6725914476       -1.4322693612
H                -1.5282415268        0.6941264558       -1.5329977466
H                 2.8730684428       -1.9030295523        0.4372852667
H                 4.2164023972       -1.0836134170        2.3324755367



