%chk=./calculation/no_transfer_pubchem_sampling_6_b3lyp/109191562.chk
%nprocshared=7
%mem=6GB
#p b3lyp/6-31g(d) opt SCF=XQC 

Gaussian input prepared by ASE

0 1
O                 3.0208877948        0.9499056506       -2.9319938587
C                 2.4627329247        0.1519920528       -2.2109211787
N                 2.9292813753       -1.1098704300       -2.0124936495
C                 4.1786172952       -1.5652928832       -2.5785167262
C                 5.2343269608       -1.7438647817       -1.5204675076
C                 5.9898814881       -2.9054695470       -1.4261303032
C                 6.9371716090       -3.0032499492       -0.4181677135
N                 7.1587907030       -2.0500098837        0.4690199290
C                 6.4413221965       -0.9422734876        0.3783070796
C                 5.4731824346       -0.7370566900       -0.5899545009
C                 1.2204015295        0.4506092404       -1.4341397950
C                 1.1304741180        0.1604070479       -0.0745925836
C                -0.0148239134        0.5029978910        0.6171570663
C                -1.0622819155        1.1435870959       -0.0570803676
N                -2.2359557161        1.4921496555        0.5654180391
C                -2.5385132342        0.9675229980        1.8806270149
C                -2.6324031384       -0.5397664404        1.9239432295
C                -2.3806015986       -1.2129585158        3.1127723895
C                -2.4796718298       -2.5910082718        3.1751295643
C                -2.8267508789       -3.3133226184        2.0458960623
C                -3.0778815686       -2.6495029971        0.8577906904
C                -2.9839439194       -1.2701623040        0.7969635337
C                -3.1522677209        2.3813430742       -0.0228373482
C                -2.7144005847        3.5875428728       -0.5674695899
C                -3.6208182509        4.4717723835       -1.1193876716
C                -4.9740526181        4.1745343556       -1.1265986314
C                -5.4152875702        2.9831408770       -0.5773263148
C                -4.5141547831        2.0887287500       -0.0292142467
C                -0.8689910040        1.3580742867       -1.4358307381
N                 0.2208052944        1.0361899435       -2.0859767707
H                 2.4380059301       -1.7325926601       -1.3917753628
H                 4.0245754915       -2.4996958874       -3.1277979848
H                 4.4874419145       -0.7834962588       -3.2819805054
H                 5.8457788123       -3.7160613620       -2.1248667636
H                 7.5465875314       -3.8912966771       -0.3113905885
H                 6.6578196591       -0.1847487030        1.1202709245
H                 4.9165525718        0.1868355594       -0.6327513028
H                 1.9526786998       -0.3091965118        0.4465830831
H                -0.0834539148        0.2696718028        1.6675616305
H                -1.7835442345        1.3107525272        2.6013705861
H                -3.4934127287        1.3978418195        2.1974256162
H                -2.1063380952       -0.6521543895        3.9956608296
H                -2.2817273372       -3.1020764565        4.1057312151
H                -2.9001124838       -4.3895576505        2.0923811552
H                -3.3491471669       -3.2061694713       -0.0270469676
H                -3.1790098011       -0.7616493095       -0.1360707244
H                -1.6617006928        3.8275356956       -0.5494872180
H                -3.2688474750        5.4028466530       -1.5376247524
H                -5.6800869493        4.8684810655       -1.5563868116
H                -6.4680837190        2.7421336928       -0.5807973105
H                -4.8681832809        1.1547721901        0.3828401786
H                -1.6508652102        1.8011329562       -2.0379440293



