%chk=calculation/no_transfer_pubchem_sampling_6_b3lyp/109234271_rwf.chk
%rwf=calculation/no_transfer_pubchem_sampling_6_b3lyp/109234271_rwf.rwf
%nprocshared=14
%mem=3GB
#p b3lyp/6-31g(d) 6D 10F nosymm GFInput td=(50-50,nstate=2) SCF=XQC 

Gaussian input prepared by ASE

0 1
C                 5.0323342620        0.5216558388       -2.7400847829
O                 4.3699070090        0.1470573233       -1.5402122220
C                 5.0546121253       -0.6095336798       -0.6214241401
C                 6.3966609928       -0.9740636807       -0.7553932570
C                 7.0088333615       -1.7361097993        0.2443221910
C                 6.2922735616       -2.1298182295        1.3701270810
C                 4.9503321921       -1.7580230495        1.4912226855
C                 4.3090292366       -1.0034634488        0.5093556256
C                 2.8453974284       -0.6397768045        0.6324833502
N                 2.6540454093        0.8041089583        0.7639953667
C                 1.3873482920        1.3444461008        0.9160168660
C                 1.1935557366        2.7329487989        0.7217538091
N                 0.0386448108        3.3631926866        0.9017479868
C                -1.0256281193        2.6365770900        1.2723312361
C                -0.9650869652        1.2532214955        1.4696098470
C                -2.1239763842        0.4374634976        1.9735853565
O                -1.9319385104       -0.4416511126        2.8131074012
N                -3.3918858940        0.7418188198        1.5220960848
C                -4.5119522314        0.0001966819        2.1048060441
C                -4.8445554649       -1.2184332946        1.2403663454
C                -4.9996792660       -0.8326010658       -0.2181339620
C                -5.6914029629       -1.6647528877       -1.1092556900
C                -5.8377112657       -1.3236250240       -2.4512901797
C                -5.2898364135       -0.1287325351       -2.9249756208
C                -4.6014534653        0.7062695186       -2.0488973120
C                -4.4475444094        0.3654920613       -0.6989374343
C                -3.6991728301        1.3267216451        0.2181736030
C                 0.2625297132        0.6038689387        1.3033833885
H                 5.8977784501        1.1659343658       -2.5383104934
H                 4.2975230498        1.0762502641       -3.3262492393
H                 5.3606525532       -0.3589465362       -3.3063456885
H                 6.9695890929       -0.6714990276       -1.6243434486
H                 8.0530640274       -2.0154126085        0.1329389407
H                 6.7673100376       -2.7194630786        2.1483864153
H                 4.3833790299       -2.0621499876        2.3677111499
H                 2.2859978634       -1.0373468958       -0.2319039313
H                 2.4422655208       -1.1250194775        1.5270960488
H                 3.2497362817        1.3313649010        0.1369222673
H                 2.0404461151        3.3492505308        0.4152421538
H                -1.9489041198        3.1858053107        1.4406218035
H                -5.3721301447        0.6806872733        2.1555076188
H                -4.2343064449       -0.2966182306        3.1156213777
H                -4.0354377908       -1.9522438487        1.3559346345
H                -5.7611791952       -1.7001963066        1.6039757006
H                -6.1222597969       -2.5920205003       -0.7368587170
H                -6.3792191596       -1.9830880729       -3.1242983154
H                -5.3964989790        0.1483490227       -3.9703375087
H                -4.1724754301        1.6374328124       -2.4150828809
H                -2.7707424227        1.6398902501       -0.2611186642
H                -4.3032841514        2.2362075096        0.3620602422
H                 0.3150166640       -0.4616225131        1.4943998661



