%chk=./calculation/no_transfer_pubchem_sampling_6_b3lyp/118493293.chk
%nprocshared=7
%mem=6GB
#p b3lyp/6-31g(d) opt SCF=XQC 

Gaussian input prepared by ASE

0 1
N                -5.9635659424        0.0728701851       -2.0816181155
C                -4.6503237270        0.5523005215       -1.7396921501
C                -4.5186248864        0.7499753088       -0.2645003177
C                -4.3339397173       -0.3492622486        0.5648525023
C                -4.2223499049       -0.1791974365        1.9323202667
C                -4.3013541942        1.0885914769        2.4845619844
C                -4.4995671608        2.1860872175        1.6648647317
C                -4.6094219165        2.0174913379        0.2956177045
C                -3.8698531255        1.4309631277       -2.6784974826
C                -3.4838283177       -0.0242879263       -2.5174086524
C                -2.2410971349       -0.4557224908       -1.8475422857
C                -1.7235394603       -1.7176449819       -2.1287524063
C                -0.5832007143       -2.1905690928       -1.5105492884
C                 0.0772093969       -1.3955497679       -0.5802386236
N                 1.2305593150       -1.8072656214        0.0966660233
C                 1.9471650251       -2.9523043995       -0.0450161044
O                 1.6877765252       -3.8539841827       -0.8080098474
C                 3.1468174807       -3.0061448641        0.9088552850
C                 3.9140416998       -1.7183755326        0.9136608243
C                 4.7301552193       -1.4025600228       -0.1925552754
C                 5.4132277861       -0.2225625646       -0.2440042953
C                 5.3201686390        0.7154589119        0.8066150839
C                 6.0154012463        1.9415666419        0.7862835624
C                 5.9025294625        2.8252404246        1.8231587335
C                 5.0890824974        2.5231243394        2.9263926507
C                 4.4020218783        1.3426796756        2.9755582091
C                 4.4987816327        0.4094417320        1.9224693792
C                 3.8044916037       -0.8180895369        1.9432354098
C                -0.4270867123       -0.1294111038       -0.2940390300
C                -1.5676050256        0.3322530210       -0.9178006356
H                -6.0722790339       -0.0137350587       -3.0856618420
H                -6.6783830912        0.7003119200       -1.7286274474
H                -4.2738542755       -1.3334861327        0.1267384221
H                -4.0719153435       -1.0376906837        2.5703841709
H                -4.2117677561        1.2216581138        3.5529040200
H                -4.5686824540        3.1761311289        2.0922676393
H                -4.7638200414        2.8756378807       -0.3440758181
H                -4.3252752637        1.7216623865       -3.6152584652
H                -3.2073161021        2.1775026531       -2.2693664352
H                -3.7686908442       -0.6758368018       -3.3366171303
H                -2.2278609120       -2.3480381574       -2.8469828727
H                -0.2004753767       -3.1699438061       -1.7428759093
H                 1.5968766019       -1.1271604766        0.7514159063
H                 2.7657239695       -3.2322385047        1.9079170814
H                 3.7777068008       -3.8351935613        0.5851749307
H                 4.8033813235       -2.1152416662       -1.0009162209
H                 6.0387111521        0.0115475545       -1.0934517504
H                 6.6404759528        2.1688144255       -0.0655615170
H                 6.4386796134        3.7626847639        1.8020953743
H                 5.0117474713        3.2327318768        3.7371923765
H                 3.7755561814        1.1056213196        3.8241554813
H                 3.1885638027       -1.0445727292        2.8045152709
H                 0.0818987955        0.4977390361        0.4257820080
H                -1.9330736382        1.3159813704       -0.6676661135



