%chk=./calculation/no_transfer_pubchem_sampling_6_b3lyp/118651604.chk
%nprocshared=7
%mem=6GB
#p b3lyp/6-31g(d) opt SCF=XQC 

Gaussian input prepared by ASE

0 1
C               -10.7728810753        1.4073952031        0.8608283687
C               -10.0577336699        1.1814978997       -0.4662509752
C                -8.8239126918        0.2854538863       -0.3456894756
C                -7.6742146926        0.9482940204        0.4103716001
C                -6.4527838149        0.0436058401        0.5641958747
C                -5.7335658443       -0.2285365609       -0.7638014341
C                -4.5005185172       -1.0338914279       -0.5387625938
S                -4.6050312800       -2.7706727043       -0.5031381621
C                -2.9125198352       -2.8836931706       -0.1390190801
C                -2.2058749535       -4.0693833160        0.0485082423
C                -0.8707044794       -4.0034424177        0.3344904094
C                -0.1832677737       -2.7720325724        0.4257335521
C                 1.2264921468       -2.7135108664        0.7202692002
C                 1.9643876246       -3.8755411609        1.0407833353
C                 3.2978347480       -3.8286773644        1.3373668716
C                 3.9532457759       -2.6002938520        1.2912181046
S                 5.6360403270       -2.3486941281        1.6272866053
C                 5.4683945963       -0.6461557223        1.3054947231
C                 6.6639483065        0.2440020781        1.3607656018
C                 7.2784430833        0.4560717912       -0.0316912663
C                 7.9928136275       -0.7927440245       -0.5471422341
C                 8.3697306699       -0.6945926471       -2.0317288102
C                 7.4171312261       -1.4591886090       -2.9530086217
C                 5.9832500713       -0.9458916124       -2.9115005703
C                 4.1957697272       -0.2989823094        0.9625799031
C                 3.8824145071        1.0990138386        0.6048361368
C                 3.7886663782        2.0737495546        1.5923404926
C                 3.5355270992        3.3904409410        1.2513533050
C                 3.3833330356        3.7476485973       -0.0776408591
C                 3.4806390322        2.7824745311       -1.0663605058
C                 3.7311921122        1.4651352669       -0.7295222810
C                 3.2908479360       -1.4126084595        0.9616246009
C                 1.8912241515       -1.4623067855        0.7090979303
C                 1.1345148803       -0.2903486774        0.4724261931
C                -0.2019660673       -0.3411476105        0.2440071411
C                -0.9014609596       -1.5704527892        0.2074194068
C                -2.2984169982       -1.6292097136       -0.0545062006
C                -3.2456750330       -0.5749756060       -0.2769284226
C                -2.9954501186        0.8792961194       -0.2133267369
C                -2.9740120556        1.5299656357        1.0164944230
C                -2.7856383518        2.8984748355        1.0775416320
C                -2.6248632140        3.6310224695       -0.0869798207
C                -2.6533770378        2.9905225489       -1.3143027295
C                -2.8429224695        1.6216194243       -1.3794186283
H               -11.6828156806        1.9826452076        0.7051253217
H               -11.0428868468        0.4556699648        1.3135754067
H               -10.1440104165        1.9544563437        1.5582813513
H                -9.7623338308        2.1448037404       -0.8885936510
H               -10.7572300358        0.7160875341       -1.1649240335
H                -8.4904456561        0.0264559178       -1.3523431707
H                -9.1015007119       -0.6416555691        0.1614683300
H                -7.3794526156        1.8648406312       -0.1068504605
H                -8.0157867527        1.2263121087        1.4088061980
H                -5.7435954168        0.5214678839        1.2444768067
H                -6.7547767364       -0.9078052361        1.0082824447
H                -6.3980099656       -0.7702009015       -1.4384139276
H                -5.4647812032        0.7243238264       -1.2263241369
H                -2.7145078567       -5.0176144784       -0.0326137594
H                -0.3406341725       -4.9306757876        0.4728912385
H                 1.4747225021       -4.8339552422        1.0794853122
H                 3.8444407985       -4.7208561476        1.6014011556
H                 7.4138828095       -0.1902290589        2.0250627256
H                 6.3644878420        1.2145659307        1.7635953651
H                 6.4860600794        0.7516927410       -0.7197916244
H                 7.9931728382        1.2803416777        0.0228097731
H                 8.8922489412       -0.9451266503        0.0536706948
H                 7.3582668993       -1.6675377989       -0.3985427853
H                 8.3969613419        0.3553465332       -2.3317733224
H                 9.3731306512       -1.0997790248       -2.1790844438
H                 7.4267401049       -2.5161095927       -2.6758851098
H                 7.7913601013       -1.3848811858       -3.9772763856
H                 5.5459376521       -1.0985239872       -1.9279451581
H                 5.3718034558       -1.4779587744       -3.6377554562
H                 5.9513133282        0.1157481386       -3.1496562288
H                 3.9014741930        1.7908189063        2.6294704227
H                 3.4578593711        4.1398695138        2.0255959374
H                 3.1879145971        4.7762172490       -0.3426504124
H                 3.3615924920        3.0571578651       -2.1043295064
H                 3.7958595419        0.7090255546       -1.4985880792
H                 1.6282810776        0.6660767107        0.4920608255
H                -0.7420015413        0.5747633895        0.0748413152
H                -3.0928636038        0.9535012224        1.9229922879
H                -2.7667287919        3.3955366250        2.0364529886
H                -2.4785358601        4.6999344949       -0.0377696371
H                -2.5298767498        3.5591616746       -2.2245343144
H                -2.8637913032        1.1173806765       -2.3351445438



