%chk=calculation/no_transfer_pubchem_sampling_6_b3lyp/118651604_rwf.chk
%rwf=calculation/no_transfer_pubchem_sampling_6_b3lyp/118651604_rwf.rwf
%nprocshared=14
%mem=3GB
#p b3lyp/6-31g(d) 6D 10F nosymm GFInput td=(50-50,nstate=2) SCF=XQC 

Gaussian input prepared by ASE

0 1
C               -11.1875018666        1.4140746937        0.7529996326
C               -10.3769346622        1.1256637774       -0.5164508165
C                -9.1224335277        0.2629287343       -0.2937137028
C                -8.0294468223        0.9384138865        0.5486387650
C                -6.7792414928        0.0757587748        0.7898224051
C                -5.9486753569       -0.2002700188       -0.4835090161
C                -4.6995156241       -0.9982287403       -0.2244986035
S                -4.8251239295       -2.7333187455        0.0018715645
C                -3.1045626540       -2.8612406019        0.2704353065
C                -2.4152373152       -4.0561422228        0.5359473958
C                -1.0550779337       -4.0103911548        0.7240866498
C                -0.3233018702       -2.7907672059        0.6546618121
C                 1.1198603078       -2.7638072362        0.8562189578
C                 1.8458259409       -3.9541670058        1.1465548801
C                 3.2057218571       -3.9495672609        1.3402958067
C                 3.9009316613       -2.7322606853        1.2457211128
S                 5.6210502457       -2.5389982811        1.4648599669
C                 5.5081600864       -0.8142022871        1.1689414055
C                 6.7513099881        0.0383230025        1.2163260246
C                 7.4854526750        0.2261758181       -0.1329750097
C                 8.1659595267       -1.0386858034       -0.6774141177
C                 8.9373037785       -0.8328068096       -2.0017196257
C                 8.1527989573       -1.1467218544       -3.2885824724
C                 6.9187182919       -0.2746604826       -3.5460950453
C                 4.2165872549       -0.4146993367        0.9220064481
C                 3.9177569665        1.0278616527        0.6684608400
C                 3.6771078120        1.9037851360        1.7386011436
C                 3.4271287933        3.2578389103        1.5100977071
C                 3.4154116009        3.7587980764        0.2070277649
C                 3.6576926808        2.8986104648       -0.8656855201
C                 3.9096430368        1.5452192915       -0.6363321469
C                 3.2589154614       -1.5140217733        0.9607267343
C                 1.8302587400       -1.5267230261        0.7656908051
C                 1.0802896657       -0.3458186580        0.4845820842
C                -0.2728778560       -0.3698579186        0.3031223948
C                -1.0280861925       -1.5780627071        0.3787818861
C                -2.4561779327       -1.6165278290        0.1864436223
C                -3.4084824589       -0.5483864520       -0.0981644263
C                -3.1089845859        0.9081858907       -0.2489398543
C                -3.1238195460        1.7618955705        0.8651021845
C                -2.8757667466        3.1276339033        0.7203629037
C                -2.6144697160        3.6631936767       -0.5422567591
C                -2.6042482973        2.8255534538       -1.6592181981
C                -2.8510135733        1.4595394274       -1.5136886674
H               -12.0947422518        1.9826870325        0.5186000907
H               -11.4968766267        0.4821788347        1.2429779381
H               -10.6152719159        1.9977939961        1.4826311176
H               -10.0826779727        2.0751774591       -0.9864275596
H               -11.0255629348        0.6171571635       -1.2424036207
H                -8.7132979345       -0.0090283530       -1.2757962458
H                -9.4152840627       -0.6828805539        0.1871195237
H                -7.7314191038        1.8820299467        0.0669967636
H                -8.4434578336        1.2148659549        1.5268746428
H                -6.1306374029        0.5787816671        1.5180564370
H                -7.0727365816       -0.8791302772        1.2472036428
H                -6.5664955757       -0.7254801832       -1.2224018974
H                -5.6627003883        0.7554321991       -0.9371086451
H                -2.9492480247       -5.0003306993        0.5915612060
H                -0.5424453725       -4.9422659294        0.9260569614
H                 1.3282944900       -4.9016953742        1.2258269115
H                 3.7352632967       -4.8712540710        1.5635974464
H                 7.4535550590       -0.3817536063        1.9487769349
H                 6.4664026568        1.0271474188        1.5925306329
H                 6.7797678608        0.6336793691       -0.8648174992
H                 8.2530549765        0.9989160922        0.0157013395
H                 8.8642200406       -1.4013793131        0.0903993014
H                 7.4256785838       -1.8388928912       -0.8085318558
H                 9.3168837141        0.1988983726       -2.0480133332
H                 9.8265260974       -1.4767715991       -1.9948954701
H                 7.8474968865       -2.2026154553       -3.2669256292
H                 8.8393754310       -1.0486063219       -4.1408204488
H                 6.1474617130       -0.4278759423       -2.7830528690
H                 6.4688581495       -0.5128952353       -4.5170690294
H                 7.1776173483        0.7916326143       -3.5518787767
H                 3.6805866617        1.5139123809        2.7529604014
H                 3.2408417077        3.9208669807        2.3509664519
H                 3.2195434239        4.8127402452        0.0286237800
H                 3.6519820224        3.2806605594       -1.8831808785
H                 4.0908230328        0.8765670518       -1.4735510844
H                 1.5914133087        0.6032404413        0.4133450816
H                -0.7800365769        0.5607853270        0.0935664982
H                -3.3220174710        1.3457039523        1.8491419400
H                -2.8882482185        3.7733384994        1.5945855605
H                -2.4214105483        4.7266658580       -0.6552507086
H                -2.4044317488        3.2349852053       -2.6460439847
H                -2.8395582847        0.8078941398       -2.3832052899



