%chk=./calculation/no_transfer_pubchem_sampling_6_b3lyp/122391604.chk
%nprocshared=7
%mem=6GB
#p b3lyp/6-31g(d) opt SCF=XQC 

Gaussian input prepared by ASE

0 1
C                -6.4009702932       -3.5672022785        5.4704254368
O                -5.9342740633       -2.2478192475        5.3439116118
C                -5.1974922616       -1.9210964623        4.2413344408
C                -4.8635870791       -2.7979650218        3.2190605780
C                -4.1084708905       -2.3619984972        2.1377443138
C                -3.7572170580       -3.3138430147        1.0322407585
C                -3.6815072402       -1.0383887998        2.0793300308
C                -2.8784452909       -0.5678975038        0.9268092083
C                -1.4971855359       -0.4808369764        1.0230867415
C                -0.7330450830       -0.0440448961       -0.0543615732
C                 0.7309163443        0.0430829408        0.0543442471
C                 1.5438625482       -0.3778925952       -0.9932748798
C                 2.9257166918       -0.3010357847       -0.8966384046
C                 3.7815555491       -0.7563954305       -2.0167669756
C                 4.3635304504       -2.0204145939       -1.9803460348
C                 4.1259486217       -2.9234264652       -0.8057334767
C                 5.1676010250       -2.4420965136       -3.0316099436
C                 5.3968569589       -1.6097413565       -4.1179232836
O                 6.1696683911       -1.9271314935       -5.1983315340
C                 6.7933998957       -3.1859504696       -5.2287410897
C                 4.8111127864       -0.3457687600       -4.1442300701
C                 4.0071122252        0.0876798748       -3.1074446256
C                 3.3817970512        1.4502885357       -3.1450171562
C                 3.5009993868        0.2082762569        0.2598525232
C                 2.7057641950        0.6357646154        1.3146451367
C                 3.3278580382        1.1791044972        2.5444346986
C                 3.7495046957        2.5050626358        2.5853047340
C                 3.5761534592        3.3859547014        1.3830042318
C                 4.3352492322        3.0091522777        3.7395860427
C                 4.5050010562        2.1981192544        4.8525973024
O                 5.0689029262        2.5944505858        6.0316795492
C                 5.5163569336        3.9214800714        6.1471904854
C                 4.0810631856        0.8718023304        4.8011698101
C                 3.4949957439        0.3558245898        3.6612448777
C                 3.0425513843       -1.0732486915        3.6152811067
C                 1.3254254652        0.5479414339        1.2064168775
C                -1.3764318717        0.3090784546       -1.2362837020
C                -2.7573624879        0.2319916763       -1.3449586069
C                -3.4318554418        0.6145525563       -2.6072395024
C                -3.9914123098        1.8819043666       -2.7424291694
C                -3.9137937358        2.8616275652       -1.6086072348
C                -4.6252611765        2.2351486482       -3.9269052860
C                -4.7063374031        1.3311375253       -4.9764855061
O                -5.3069301691        1.5779986043       -6.1780014305
C                -5.8928863473        2.8379228277       -6.3873317169
C                -4.1445062633        0.0644028153       -4.8307011676
C                -3.5090087459       -0.3015957303       -3.6596734831
C                -2.9080757640       -1.6675578688       -3.5112886838
C                -3.5032066564       -0.2086363275       -0.2599494438
C                -4.0132425223       -0.1491075283        3.1050254483
C                -3.5553739972        1.2774525004        3.0393438800
C                -4.7667253198       -0.5977538885        4.1727912911
H                -6.9553202325       -3.5959744969        6.4073594967
H                -7.0700834907       -3.8390858928        4.6470779066
H                -5.5746305791       -4.2844432615        5.5183099737
H                -5.1825992169       -3.8284919884        3.2448558681
H                -4.0039463118       -4.3365960560        1.3062790162
H                -2.6949737426       -3.2560577765        0.7999703070
H                -4.3063117802       -3.0580977683        0.1260795765
H                -1.0116914501       -0.7799980355        1.9413499290
H                 1.0989937108       -0.7932143913       -1.8865649883
H                 3.0647229960       -2.9697431670       -0.5664379049
H                 4.6451647713       -2.5424794407        0.0736823605
H                 4.4867326484       -3.9287442298       -1.0086991435
H                 5.6071326985       -3.4264361360       -2.9835651677
H                 7.4869286336       -3.3128322435       -4.3906333445
H                 6.0603028897       -3.9996271747       -5.2193869033
H                 7.3511861919       -3.2168194630       -6.1635672195
H                 5.0027779330        0.2869919072       -4.9968555362
H                 3.5796387126        1.9876483701       -2.2187068762
H                 2.3005126928        1.3686836934       -3.2509231834
H                 3.7683813044        2.0284632156       -3.9800437207
H                 4.5773387477        0.2728003114        0.3396408322
H                 2.5639355039        3.3037033911        0.9902898786
H                 3.7759665430        4.4256177207        1.6303803970
H                 4.2616797723        3.0825712306        0.5917124452
H                 4.6534323042        4.0402082951        3.7499056068
H                 5.9206061055        4.0103696860        7.1544936083
H                 4.6955602351        4.6360392831        6.0237608738
H                 6.3050159528        4.1459173946        5.4210968332
H                 4.2234158583        0.2570696917        5.6763430121
H                 3.4436015257       -1.5732354326        2.7348464295
H                 1.9560160724       -1.1253465968        3.5539524307
H                 3.3650579380       -1.6081726866        4.5045665154
H                 0.7081688445        0.8997806966        2.0210259029
H                -0.7997816615        0.6710764681       -2.0758353514
H                -4.2362009880        3.8502953046       -1.9257355060
H                -4.5523720506        2.5380861916       -0.7866798310
H                -2.8958361305        2.9266626790       -1.2275282193
H                -5.0508162754        3.2232242142       -4.0107627610
H                -6.3030700571        2.8091538587       -7.3957463739
H                -6.7018218993        3.0300569742       -5.6744040299
H                -5.1529168981        3.6427286317       -6.3219445620
H                -4.2194909190       -0.6244745203       -5.6576916663
H                -1.8234147005       -1.5988886341       -3.4355791555
H                -3.1571781872       -2.2928497406       -4.3644636920
H                -3.2688788258       -2.1469567320       -2.6023826735
H                -4.5796182578       -0.2723417509       -0.3397385035
H                -3.9973614230        1.8612180787        3.8423517667
H                -3.8293863049        1.7230004450        2.0840860919
H                -2.4707791055        1.3325550625        3.1260997396
H                -5.0380863324        0.0686258746        4.9767771335



