%chk=calculation/no_transfer_pubchem_sampling_6_b3lyp/122391604_rwf.chk
%rwf=calculation/no_transfer_pubchem_sampling_6_b3lyp/122391604_rwf.rwf
%nprocshared=14
%mem=3GB
#p b3lyp/6-31g(d) 6D 10F nosymm GFInput td=(50-50,nstate=2) SCF=XQC 

Gaussian input prepared by ASE

0 1
C                -6.3348404121       -3.4049608784        5.7175340556
O                -6.0023392816       -2.0505474234        5.4645821401
C                -5.2548377231       -1.7643109928        4.3560383880
C                -4.7892151594       -2.7136987795        3.4449127987
C                -4.0277393770       -2.3181926226        2.3356944787
C                -3.5388066762       -3.3727474056        1.3663569399
C                -3.7297240360       -0.9576974804        2.1382475867
C                -2.9161279031       -0.5261164886        0.9551329858
C                -1.5213854555       -0.4387906846        1.0425953692
C                -0.7398875336       -0.0440098139       -0.0550562048
C                 0.7402141016        0.0440443195        0.0550399015
C                 1.5657678154       -0.3358376430       -1.0152763228
C                 2.9610696664       -0.2583215096       -0.9274654556
C                 3.8230166842       -0.6770562712       -2.0805786854
C                 4.2720288261       -2.0061033439       -2.1843609699
C                 3.8997819916       -3.0390732301       -1.1426502898
C                 5.0778499191       -2.3897919557       -3.2660580010
C                 5.4385346878       -1.4596180458       -4.2422636206
O                 6.2182211784       -1.7365137384       -5.3308303950
C                 6.7012493143       -3.0594638523       -5.4904029422
C                 4.9908023040       -0.1384044665       -4.1371236471
C                 4.1892602203        0.2635338783       -3.0711271088
C                 3.7246807568        1.7009859397       -2.9907160444
C                 3.5349763235        0.2103090488        0.2629232804
C                 2.7406307802        0.5975391926        1.3515397115
C                 3.3676985442        1.1048509394        2.6154154864
C                 3.6371230814        2.4765342376        2.7723913922
C                 3.3038847680        3.4674302604        1.6779357792
C                 4.2236959566        2.9430595568        3.9576853859
C                 4.5431114686        2.0534499023        4.9847496300
O                 5.1155978826        2.4107872312        6.1739214854
C                 5.4104632397        3.7800049137        6.3913473073
C                 4.2742310927        0.6897046441        4.8265456735
C                 3.6916866584        0.2054269221        3.6575771922
C                 3.4161539321       -1.2759190429        3.5224356451
C                 1.3483349776        0.5092162333        1.2320000075
C                -1.3920584660        0.2654754324       -1.2593491367
C                -2.7849136610        0.1869603935       -1.3792357634
C                -3.4603502791        0.5299507687       -2.6731075998
C                -3.8847794362        1.8473846581       -2.9240520631
C                -3.6724315257        2.9435739184       -1.9022720603
C                -4.5156786624        2.1600489291       -4.1368355945
C                -4.7262186538        1.1705076473       -5.0984858207
O                -5.3305870431        1.3763155582       -6.3075933061
C                -5.7798244981        2.6841676484       -6.6185366328
C                -4.3032534056       -0.1390397997       -4.8468646630
C                -3.6742170208       -0.4708855166       -3.6491333512
C                -3.2310689579       -1.8978152319       -3.4123649439
C                -3.5346447111       -0.2102769758       -0.2629381229
C                -4.2020727984        0.0023887053        3.0629954285
C                -3.9007483507        1.4737030914        2.8813206794
C                -4.9572250792       -0.4118145698        4.1577785997
H                -6.9247617753       -3.4024312023        6.6362520450
H                -6.9347100467       -3.8341047658        4.9036733984
H                -5.4382125991       -4.0219152453        5.8651774370
H                -5.0074332010       -3.7673673892        3.5795267526
H                -3.8434937066       -4.3735146614        1.6878552631
H                -2.4464100189       -3.3635660736        1.2768954075
H                -3.9355189268       -3.2077650301        0.3574618203
H                -1.0360881099       -0.7070809195        1.9771237981
H                 1.1177102351       -0.7222878282       -1.9267243434
H                 2.8128349788       -3.1463277976       -1.0506871801
H                 4.2706831183       -2.7610394272       -0.1488689118
H                 4.3162787044       -4.0192168443       -1.3947995983
H                 5.4130248419       -3.4192402018       -3.3281264185
H                 7.3416369077       -3.3614350746       -4.6507048704
H                 5.8799217827       -3.7815883078       -5.5920479151
H                 7.2913593555       -3.0545464474       -6.4089900877
H                 5.2834996053        0.5677662271       -4.9086159193
H                 4.0747091939        2.1864774451       -2.0718653115
H                 2.6307449997        1.7716563707       -2.9830337888
H                 4.0958019979        2.2800602756       -3.8415929719
H                 4.6173780113        0.2746932290        0.3434424139
H                 2.2373847426        3.4470523438        1.4257791231
H                 3.5606465902        4.4875345374        1.9799138606
H                 3.8473121389        3.2433257842        0.7522307681
H                 4.4227224260        4.0042025619        4.0592838883
H                 5.8547057735        3.8366978255        7.3870836663
H                 4.5038415642        4.3994087129        6.3640112564
H                 6.1278777061        4.1625965153        5.6528900392
H                 4.5308017727        0.0162862601        5.6390899976
H                 3.9512811976       -1.7088051634        2.6687770272
H                 2.3510469005       -1.4746392057        3.3556140238
H                 3.7244270428       -1.8147844162        4.4233470131
H                 0.7283901330        0.8321377903        2.0640015913
H                -0.8093478950        0.5973114460       -2.1144338367
H                -4.0417704616        3.9043167413       -2.2741496693
H                -4.1920829521        2.7241694718       -0.9618964138
H                -2.6119580967        3.0622296248       -1.6518288778
H                -4.8347214614        3.1816928766       -4.3112288197
H                -6.2232107447        2.6201923764       -7.6142133796
H                -6.5397123919        3.0321101070       -5.9058762178
H                -4.9504918221        3.4040414564       -6.6375269070
H                -4.4771791061       -0.8922440663       -5.6097422883
H                -2.1507446667       -1.9610234181       -3.2371880215
H                -3.4725452397       -2.5300190333       -4.2720491584
H                -3.7157932078       -2.3285250128       -2.5280545603
H                -4.6170455688       -0.2746795021       -0.3434528909
H                -4.3389198065        2.0654262824        3.6905912841
H                -4.2977946835        1.8517745668        1.9316372713
H                -2.8215431341        1.6656940438        2.8661742796
H                -5.3296191631        0.3089429541        4.8798453499



