%chk=calculation/no_transfer_pubchem_sampling_6_b3lyp/123832027_rwf.chk
%rwf=calculation/no_transfer_pubchem_sampling_6_b3lyp/123832027_rwf.rwf
%nprocshared=14
%mem=3GB
#p b3lyp/6-31g(d) 6D 10F nosymm GFInput td=(50-50,nstate=2) SCF=XQC 

Gaussian input prepared by ASE

0 1
C                -5.4452102798        0.4803674387        2.2446021235
C                -4.1053365647        0.6958153787        1.5627021809
C                -3.0267053329        0.9168325492        2.4008456864
C                -1.7208910439        1.0963766354        1.9116513951
C                -1.4854575374        1.0321363912        0.5620673430
C                -2.5399385748        0.8069137245       -0.3657017610
C                -2.2554339572        0.7221629830       -1.7721753503
C                -0.8624532962        0.8670690754       -2.3602986923
C                -0.0897301418       -0.4604611092       -2.6115601153
C                 0.3456154757       -1.2248301308       -1.3779583717
C                 1.5840512499       -0.9436015377       -0.8015674607
C                 2.0415362780       -1.6209855959        0.3343840249
N                 3.3441206141       -1.3427110994        0.8479269869
O                 3.3819024190        0.0747275362        1.2514524526
C                 4.6789093599        0.5682323856        1.2898823460
C                 5.0550237544        1.2314848686        2.4553191534
C                 6.2931186860        1.8706588932        2.5464411730
C                 7.1652259509        1.8130986609        1.4596526630
C                 6.8012183824        1.1299633665        0.2996826041
C                 5.5517028884        0.5016969077        0.1795539088
N                 5.1486567076       -0.1154650337       -1.0067260895
C                 1.2423040656       -2.6188523295        0.8939001080
C                 0.0168477279       -2.9356638403        0.3146108312
C                -0.4595901143       -2.2439303647       -0.8093713590
N                -1.6802896011       -2.6068278123       -1.3945009456
C                -3.3079211053        0.4963215172       -2.6376778128
C                -4.6276407564        0.3716810727       -2.1808097985
C                -4.9463132670        0.4624944122       -0.8346086687
N                -6.2953921467        0.2984635048       -0.4707993231
C                -3.8935734820        0.6558377450        0.1355100625
H                -5.2900976632        0.3518227605        3.3198069485
H                -6.1191802647        1.3429796558        2.1351808704
H                -5.9702797896       -0.4021011537        1.8709518515
H                -3.1963813155        0.9407879081        3.4745102238
H                -0.8997742248        1.2647871292        2.6028517325
H                -0.4700914913        1.1298287276        0.2003231426
H                -0.9620744139        1.3626221932       -3.3344603750
H                -0.2383631901        1.5301672272       -1.7535590382
H                 0.8059008387       -0.2041838984       -3.1910677636
H                -0.6974838057       -1.1077160203       -3.2561865452
H                 2.2166901492       -0.1761163179       -1.2397596387
H                 3.4739868913       -1.8463242179        1.7278159433
H                 4.3467754507        1.2508226285        3.2786865760
H                 6.5710792422        2.3954591431        3.4555925702
H                 8.1380537340        2.2948922113        1.5113075653
H                 7.4870115165        1.0885914942       -0.5445309828
H                 4.5681961252       -0.9315166340       -0.8319150375
H                 5.9181195326       -0.3254924954       -1.6325604228
H                 1.5726949537       -3.1524877820        1.7829588587
H                -0.5977966098       -3.7174463386        0.7557752769
H                -2.2599543404       -3.1770106489       -0.7893263649
H                -2.2188790799       -1.8279722650       -1.7577687782
H                -3.1182936355        0.4419425372       -3.7079503194
H                -5.4294414324        0.2274490609       -2.9023557572
H                -6.6270801636        0.9238973944        0.2499433935
H                -6.9116923724        0.3433105078       -1.2751162247



