%chk=calculation/no_transfer_pubchem_sampling_6_b3lyp/125107287_rwf.chk
%rwf=calculation/no_transfer_pubchem_sampling_6_b3lyp/125107287_rwf.rwf
%nprocshared=14
%mem=3GB
#p b3lyp/6-31g(d) 6D 10F nosymm GFInput td=(50-50,nstate=2) SCF=XQC 

Gaussian input prepared by ASE

0 1
C                -1.1884419405       -5.1485462470       -1.0601343109
C                -2.5293828010       -4.8279501599       -0.3926910280
C                -3.0406868708       -3.3837627632       -0.5874605169
C                -3.3074191670       -3.0143784911       -2.0499007985
N                -2.1340683151       -2.3884985666        0.0042940020
C                -2.1270258666       -2.1431340721        1.3381757667
O                -2.8709293801       -2.7263647200        2.1277570235
C                -1.0718548515       -1.1337347618        1.8584044015
C                -1.4162067241       -0.5772388420        3.2648235054
C                -2.5817858905        0.3819939416        3.4530229207
C                -3.9183874586       -0.0301582978        3.3062728556
C                -4.9670570324        0.8625502894        3.5295092756
C                -4.7086807440        2.1797686602        3.9160614884
C                -3.3887980908        2.5960536484        4.0842047449
C                -2.3401169748        1.7028166590        3.8560646658
N                -0.6762385254       -0.1371377269        0.8439413088
C                -1.7013891187        0.7712248326        0.2994336688
C                -1.3474521323        2.2501489801        0.3002898229
C                -0.4316459810        2.8173908143        1.1913058900
C                -0.1743935188        4.1896377214        1.1740303367
C                -0.8248287444        5.0407094512        0.2738890437
C                -0.5263580892        6.5213129967        0.2375212259
C                -1.7457608627        4.4679491208       -0.6142969802
C                -1.9966117795        3.0980492186       -0.6067036081
C                 0.5792552386       -0.2548959468        0.3017412567
O                 1.4263472195       -1.0270219674        0.7585627004
C                 0.9227562458        0.5986024039       -0.9342159209
N                 1.8645838840       -0.0622386119       -1.8405867179
C                 3.2417462554        0.3366135388       -1.8897100187
C                 3.8041983184        0.7322601993       -3.1071291098
C                 5.1492667949        1.1331371631       -3.1875820616
C                 5.8739078833        1.1462418623       -2.0124984802
C                 5.3072301624        0.7651771729       -0.7964752773
C                 3.9996787269        0.3396006984       -0.6948721102
O                 6.2378313032        0.8954976036        0.2066257881
C                 7.4710775519        1.2105458879       -0.4496196989
O                 7.1771319837        1.5317460870       -1.8145437332
S                 1.3542261146       -1.4861515074       -2.5912394174
O                 1.7490128612       -1.4610936811       -4.0017638033
O                -0.0766921771       -1.5910965741       -2.2310622068
C                 2.2081047564       -2.8846901170       -1.7883909513
C                 3.6421081600       -3.1117259228       -2.2574472173
H                -0.8859013236       -6.1784759147       -0.8398561240
H                -1.2344784874       -5.0431157577       -2.1501023845
H                -0.3982547586       -4.4848598340       -0.6913766717
H                -3.3034857106       -5.5091716142       -0.7724198616
H                -2.4582768505       -5.0078103538        0.6858554612
H                -3.9746656579       -3.3024056689       -0.0217487715
H                -2.3829207709       -2.9704074833       -2.6349619025
H                -3.9698325862       -3.7550318644       -2.5112216903
H                -3.7927835337       -2.0346699553       -2.1184907216
H                -1.4189751059       -1.9868197505       -0.5941297915
H                -0.1655545864       -1.7294933849        2.0048043492
H                -0.5041918293       -0.0999045028        3.6408917646
H                -1.5880757334       -1.4656693838        3.8816021287
H                -4.1247801756       -1.0573960660        3.0260676708
H                -5.9928743816        0.5221770271        3.4112602642
H                -5.5287293178        2.8709292361        4.0927420452
H                -3.1708796567        3.6148821158        4.3939656839
H                -1.3159311227        2.0362705759        4.0030611157
H                -1.9763690130        0.4609914430       -0.7169522915
H                -2.5929592133        0.6230748042        0.9136970145
H                 0.0898325829        2.1846518642        1.9030046460
H                 0.5448702921        4.6045150626        1.8768671183
H                -1.4341924011        7.1090977029        0.0617200844
H                 0.1780867398        6.7669420007       -0.5683656469
H                -0.0795256635        6.8628182072        1.1768731476
H                -2.2678401971        5.1021099509       -1.3275273069
H                -2.7111054959        2.6816270311       -1.3140851852
H                 1.4039889323        1.5226276277       -0.6041770448
H                 0.0315136257        0.8853299918       -1.4905231460
H                 3.1890896463        0.7121434612       -3.9984651499
H                 5.5939082998        1.4367856050       -4.1288399724
H                 3.5609654639        0.0058946122        0.2386837920
H                 7.9313525876        2.0755549257        0.0359467454
H                 8.1386647270        0.3381686319       -0.4141672306
H                 1.5645501987       -3.7330870661       -2.0447555347
H                 2.1246769621       -2.6892003672       -0.7162195530
H                 3.6882697662       -3.1995725309       -3.3459397784
H                 4.3059724313       -2.3035438916       -1.9427683870
H                 4.0105918938       -4.0451644619       -1.8175536098



