%chk=./calculation/no_transfer_pubchem_sampling_6_b3lyp/126115637.chk
%nprocshared=7
%mem=6GB
#p b3lyp/6-31g(d) opt SCF=XQC 

Gaussian input prepared by ASE

0 1
C                -4.1218814105        1.9106140632        1.8713217706
C                -5.2641330320        1.1139858347        1.2480510542
C                -6.4516751380        1.0323099722        2.2027946624
C                -4.7988852389       -0.3065734180        0.8916157240
N                -3.7108303314       -0.3165337873       -0.0495574786
C                -2.4090879715       -0.5756943646        0.3142562300
O                -2.0928344693       -0.8601266941        1.4548993502
C                -1.5824376761       -0.4452950537       -0.9152675602
C                -0.2528139132       -0.5843220859       -1.1396445427
C                 0.8718831138       -0.9120679635       -0.3051283684
C                 2.1333184795       -0.9620076585       -0.9148251807
C                 3.2760460016       -1.2686149355       -0.2077304678
C                 3.1917938573       -1.5430866418        1.1554871924
O                 4.2410252974       -1.8615708092        1.9586069841
C                 5.5291855762       -1.9522219117        1.3977365470
C                 6.1002753400       -0.6263109950        0.9558931675
C                 5.6289138759        0.5801879882        1.4542866832
C                 6.1747884741        1.7809047262        1.0348321266
C                 7.2075772270        1.7954950071        0.1132860297
C                 7.6991829201        0.6047784899       -0.3940466878
C                 7.1385926787       -0.5823168935        0.0339789252
F                 7.6144384665       -1.7463132457       -0.4686693682
C                 1.9414188628       -1.4953431812        1.7783466925
C                 0.8060440594       -1.1872982432        1.0682868148
C                -2.5258342972       -0.1036197261       -1.9721219473
C                -2.3669891327        0.1350788463       -3.3257448854
C                -3.4865367690        0.4310301096       -4.0892838715
C                -4.7464146811        0.4838925356       -3.5136852711
C                -4.9267507584        0.2493944121       -2.1573416268
C                -3.8087418885       -0.0380258512       -1.3990459991
H                -3.2980975962        2.0198047761        1.1691559892
H                -4.4622738723        2.9041077223        2.1543987841
H                -3.7471077518        1.4042896278        2.7578759540
H                -5.5810812847        1.6192480366        0.3287203229
H                -7.2706061483        0.4718443019        1.7566183152
H                -6.1593420039        0.5377522188        3.1263989812
H                -6.8114490462        2.0290499574        2.4461865274
H                -5.6331270202       -0.8829158062        0.4779063008
H                -4.4329341692       -0.8067162835        1.7931536507
H                 0.0359279177       -0.4148734772       -2.1732956090
H                 2.2203543701       -0.7530671991       -1.9720886287
H                 4.2234090755       -1.2856372214       -0.7235604481
H                 6.1518524882       -2.3633791343        2.2011126200
H                 5.5439624465       -2.6655602634        0.5623521268
H                 4.8245576504        0.5695735659        2.1740887529
H                 5.7913215949        2.7082427622        1.4315411522
H                 7.6335669303        2.7315800494       -0.2131115739
H                 8.5031593910        0.5836004789       -1.1125180468
H                 1.8906515486       -1.7098163253        2.8343499954
H                -0.1462525670       -1.1577627698        1.5704366438
H                -1.3928300294        0.0919487006       -3.7893360109
H                -3.3758331367        0.6196270197       -5.1465605401
H                -5.6044655545        0.7110997572       -4.1287376144
H                -5.9120007554        0.2876309800       -1.7193603436



