%chk=./calculation/no_transfer_pubchem_sampling_6_b3lyp/12996343.chk
%nprocshared=7
%mem=6GB
#p b3lyp/6-31g(d) opt SCF=XQC 

Gaussian input prepared by ASE

0 1
C                -1.1642555867        3.0483942932       -0.1421372440
C                -1.5394847806        1.6421685225       -0.5036289378
C                -2.1770215688        1.3639844833       -1.7040803462
C                -2.5503368604        0.0683777870       -2.0393094084
C                -3.2562609413       -0.2003078548       -3.3346859452
C                -2.2681375072       -0.9599507809       -1.1542715289
C                -1.6173072397       -0.7073689890        0.0493108070
C                -1.3044052657       -1.8167772695        0.9648405055
C                -2.2831792633       -2.7373455869        1.3175358502
C                -2.0022427666       -3.7819792648        2.1804574879
C                -0.7259732608       -3.9281321291        2.7015550869
C                 0.2660232680       -3.0321024718        2.3557001728
C                -0.0090592395       -1.9737508331        1.4890827502
C                 1.0197650440       -1.0855028713        1.1115526659
C                 1.9033844701       -0.3407364910        0.7596135081
C                 2.8710230969        0.5888503212        0.3262301813
C                 2.5278393453        1.5266510061       -0.6513125116
C                 3.4608407517        2.4509606752       -1.0772059475
C                 4.7391874101        2.4521724281       -0.5402056229
C                 5.0845453585        1.5221229002        0.4277703924
C                 4.1595175854        0.5930224982        0.8626130996
C                -1.2662125571        0.5988387791        0.3690201573
H                -1.9639372748        3.5093138913        0.4388933319
H                -1.0066649243        3.6507304537       -1.0341531559
H                -0.2589089673        3.0641083556        0.4609657330
H                -2.3886462743        2.1698807136       -2.3935985204
H                -2.7720828569        0.3288505120       -4.1534133987
H                -3.2654776993       -1.2637424347       -3.5604543418
H                -4.2883029197        0.1469178119       -3.2775466834
H                -2.5338257945       -1.9761287854       -1.4101828685
H                -3.2815529868       -2.6177344944        0.9212887348
H                -2.7797907839       -4.4823127275        2.4484510991
H                -0.5052231635       -4.7430358790        3.3754011773
H                 1.2669035132       -3.1419930065        2.7480134533
H                 1.5294251145        1.5147859800       -1.0644377303
H                 3.1922957892        3.1756315675       -1.8324177573
H                 5.4661084217        3.1769913797       -0.8762339677
H                 6.0813271496        1.5233297222        0.8449502866
H                 4.4222628211       -0.1334505785        1.6181134789
H                -0.7821626565        0.8062703666        1.3119539563



