%chk=calculation/no_transfer_pubchem_sampling_6_b3lyp/133079058_rwf.chk
%rwf=calculation/no_transfer_pubchem_sampling_6_b3lyp/133079058_rwf.rwf
%nprocshared=14
%mem=3GB
#p b3lyp/6-31g(d) 6D 10F nosymm GFInput td=(50-50,nstate=2) SCF=XQC 

Gaussian input prepared by ASE

0 1
C                 4.4350184131        1.9632617221       -2.7535851177
C                 5.0809597517        0.8140332010       -2.0389713661
N                 6.1114915682        0.1717497365       -2.5955883497
N                 6.4447411032       -0.7949513438       -1.7109183672
C                 7.5995073719       -1.6305029362       -1.9664210192
C                 5.6570206106       -0.7653772157       -0.6033532497
C                 4.7469227525        0.2636549352       -0.7691619410
C                 3.6463237618        0.6807118914        0.1658217344
C                 2.2774695845        0.0948500796       -0.2266504818
C                 1.1667361536        0.5460950986        0.7304631195
O                 1.4320258633        1.2675600101        1.6925589705
N                -0.1314366455        0.1602223141        0.4580645153
C                -0.4223649336       -0.9579173663       -0.4421072914
C                -0.4829142050       -2.3387046256        0.2154203186
C                 0.3989250831       -2.6682241292        1.2516724030
C                 0.4711487417       -3.9580230581        1.7778401143
C                -0.3583881509       -4.9530427838        1.2638866482
C                -1.2753258325       -4.6339839587        0.2653958076
C                -1.3644419428       -3.3356892652       -0.2622805419
N                -2.3132551254       -3.0657332899       -1.2902179041
C                -3.5156113549       -2.2521376715       -0.9580442083
C                -3.5379959177       -0.8765997907       -1.6044432778
C                -3.6000815404       -0.8135769460       -3.0052952747
C                -3.6895376842        0.3931094539       -3.6908468787
C                -3.7288711918        1.5858239294       -2.9653590632
C                -3.6506276125        1.5521780123       -1.5772870611
C                -3.5342284691        0.3354227617       -0.8876762006
O                -3.5503360224        0.4278864957        0.4905756705
C                -2.5176523924       -0.0608150810        1.3717675051
C                -1.1648955614        0.6798173715        1.3970644027
C                -1.3435189772        2.2155500243        1.2578715082
C                -1.9549718171        2.8390421906        2.4966707660
C                -1.1356997512        3.1349690483        3.5972457445
C                -1.6711494510        3.7012648781        4.7540337816
C                -3.0374612092        3.9819335599        4.8307594876
C                -3.8626704469        3.6874720310        3.7445478339
C                -3.3249588169        3.1184524998        2.5878956844
H                 3.4072477829        1.7310816713       -3.0618404076
H                 4.3871043112        2.8563608178       -2.1182970116
H                 5.0086181315        2.2096057645       -3.6511601512
H                 7.5592172314       -2.5054245522       -1.3130547629
H                 7.5821001715       -1.9558615137       -3.0091481081
H                 8.5319321084       -1.0849657350       -1.7810472462
H                 5.8007925149       -1.4632594884        0.2109717526
H                 3.5653982581        1.7729377822        0.1980133316
H                 3.8802844083        0.3746429442        1.1906576589
H                 2.3442687783       -0.9996172826       -0.2496326019
H                 2.0195411171        0.4016544261       -1.2489819964
H                -1.3417663828       -0.7465239943       -0.9775558997
H                 0.3484630782       -0.9795477739       -1.2164387193
H                 1.0490133148       -1.8980350783        1.6564952124
H                 1.1722121973       -4.1805672624        2.5771448329
H                -0.3133463807       -5.9665849919        1.6531853553
H                -1.9541408411       -5.3982600389       -0.1088255046
H                -2.6134378525       -3.9460298302       -1.6935278865
H                -4.3837198981       -2.8041551510       -1.3374619139
H                -3.6577395346       -2.1816049113        0.1233553796
H                -3.5814679969       -1.7483179104       -3.5610765082
H                -3.7418952748        0.4035487086       -4.7757544317
H                -3.8180355442        2.5402414361       -3.4770412347
H                -3.6891896301        2.4686010720       -0.9978576670
H                -2.9691222320        0.0977867055        2.3531345263
H                -2.3668851170       -1.1346066570        1.2535095305
H                -0.7691974326        0.4971617837        2.4040397315
H                -0.3562321265        2.6494310515        1.0957551245
H                -1.9501771156        2.4293115976        0.3756431713
H                -0.0722113287        2.9165655652        3.5338365859
H                -1.0203230624        3.9285565787        5.5947614553
H                -3.4549574380        4.4274758248        5.7300839963
H                -4.9275194006        3.9011536795        3.7952765310
H                -3.9747275218        2.8774669782        1.7506504539



