%chk=calculation/no_transfer_pubchem_sampling_6_b3lyp/13806944_rwf.chk
%rwf=calculation/no_transfer_pubchem_sampling_6_b3lyp/13806944_rwf.rwf
%nprocshared=14
%mem=3GB
#p b3lyp/6-31g(d) 6D 10F nosymm GFInput td=(50-50,nstate=2) SCF=XQC 

Gaussian input prepared by ASE

0 1
C                -1.3278228752       -0.7607343943        2.8978436837
C                -1.4276648820       -1.9526264323        1.9424124082
C                -1.6251039459       -1.5606922574        0.4673284412
C                -1.7785208877       -2.7835058020       -0.4439469751
N                -0.5105732167       -0.7188315722       -0.0008797957
N                 0.7592577886       -1.1729888881        0.1456807067
C                 1.5017041987       -0.1400319665       -0.2507547259
C                 2.9712275392       -0.1760628410       -0.2711020600
C                 3.6928145441        0.9438523982       -0.7093472951
C                 5.0862064936        0.9180080008       -0.7288638415
C                 5.7751173677       -0.2233395261       -0.3130126634
C                 5.0604617390       -1.3421099426        0.1235880277
C                 3.6680417993       -1.3211130497        0.1451848908
N                 0.7756550884        0.9468336308       -0.6397124990
C                -0.4858716042        0.5596404614       -0.4808949584
C                -1.6499569739        1.4110096507       -0.7808272733
C                -1.5652394170        2.7811341496       -0.4828410815
C                -2.6292974768        3.6327913747       -0.7681193182
C                -3.7919076807        3.1328187063       -1.3603105333
C                -3.8777279595        1.7768187678       -1.6778663238
C                -2.8131246961        0.9206363745       -1.3955734280
H                -0.4477264406       -0.1478299790        2.6774801115
H                -1.2412740120       -1.1042886656        3.9343263117
H                -2.2140045836       -0.1174250950        2.8326904476
H                -0.5293016325       -2.5744645829        2.0213614363
H                -2.2805354137       -2.5844112980        2.2233383631
H                -2.5154332908       -0.9302091819        0.3923705924
H                -1.9541655340       -2.4851149676       -1.4832438776
H                -2.6236929724       -3.3969408459       -0.1138477433
H                -0.8707148305       -3.3936123186       -0.4147560139
H                 3.1473783054        1.8246169013       -1.0320785850
H                 5.6356359673        1.7913834022       -1.0706677559
H                 6.8617282429       -0.2420118769       -0.3292974293
H                 5.5903037577       -2.2339961413        0.4481395611
H                 3.1075168396       -2.1870571018        0.4828655095
H                -0.6550123523        3.1612499306       -0.0308989282
H                -2.5515705780        4.6895819814       -0.5275988230
H                -4.6218640638        3.7983123706       -1.5815493052
H                -4.7693454806        1.3840456825       -2.1589407205
H                -2.8755948710       -0.1233370570       -1.6876825374



