%chk=./calculation/no_transfer_pubchem_sampling_6_b3lyp/13806944.chk
%nprocshared=7
%mem=6GB
#p b3lyp/6-31g(d) opt SCF=XQC 

Gaussian input prepared by ASE

0 1
C                -1.4786365800       -0.5773389563        2.7758606573
C                -1.4288158564       -1.8398673048        1.9239386893
C                -1.6046662090       -1.5291230851        0.4326448352
C                -1.6776854902       -2.8049813540       -0.4031930249
N                -0.4927781445       -0.7264336726       -0.0181010190
N                 0.7572426533       -1.1771720403        0.1185389359
C                 1.5183080843       -0.1671941307       -0.2679660073
C                 2.9671202664       -0.2084088750       -0.2967340781
C                 3.6840505788        0.9055378838       -0.7270172361
C                 5.0648597464        0.8700282706       -0.7542596061
C                 5.7400895706       -0.2722119056       -0.3544621397
C                 5.0299142169       -1.3827822859        0.0740728433
C                 3.6491909231       -1.3550483998        0.1043445487
N                 0.7978315694        0.9206748626       -0.6338224747
C                -0.4564399239        0.5485410086       -0.4759436639
C                -1.6125725483        1.3899939388       -0.7484226448
C                -1.5943676122        2.7142366314       -0.3176531280
C                -2.6749020686        3.5399387202       -0.5622047914
C                -3.7797666365        3.0563189321       -1.2441085676
C                -3.7934921955        1.7472988016       -1.6955886560
C                -2.7156010320        0.9151270920       -1.4535321767
H                -0.6715849236        0.1010945851        2.5073943443
H                -1.3733144974       -0.8276949339        3.8283434597
H                -2.4245789934       -0.0559943299        2.6381397199
H                -0.4685560562       -2.3395727093        2.0600909146
H                -2.2216346840       -2.5236763382        2.2313035974
H                -2.5119551481       -0.9305185055        0.2960472868
H                -1.8079887881       -2.5664149961       -1.4568451512
H                -2.5121277734       -3.4205736248       -0.0787028294
H                -0.7540217459       -3.3664730902       -0.2888786030
H                 3.1391514369        1.7843824959       -1.0352662512
H                 5.6196477956        1.7349036072       -1.0885739698
H                 6.8200694217       -0.2976033826       -0.3769504521
H                 5.5579817009       -2.2727560725        0.3852340412
H                 3.0805068551       -2.2104966855        0.4349340904
H                -0.7248798312        3.0788123090        0.2071523305
H                -2.6561539368        4.5645064782       -0.2213766389
H                -4.6250176591        3.7013228530       -1.4332130728
H                -4.6453055959        1.3733302049       -2.2446606189
H                -2.7191188893       -0.0937139966       -1.8405674930



