%chk=./calculation/no_transfer_pubchem_sampling_6_b3lyp/139781787.chk
%nprocshared=7
%mem=6GB
#p b3lyp/6-31g(d) opt SCF=XQC 

Gaussian input prepared by ASE

0 1
C                10.2012696320       -0.4245206213       -0.0154090360
O                10.0359031857        0.8930932931       -0.4781520893
C                 9.1155234484        1.6414714487        0.2806598070
C                 7.6834590715        1.1945559753        0.1112792784
C                 7.2350093925        0.7648971672       -1.1326074250
C                 5.9290581373        0.3541506109       -1.3071368311
C                 5.0320230789        0.3774440674       -0.2407662742
C                 3.6402142330       -0.0573818062       -0.4255552203
C                 3.2993154338       -1.1171054211       -1.2066459618
C                 1.9338062425       -1.5534748331       -1.3776367365
O                 1.6063487457       -2.5026305220       -2.0797586869
C                 0.9421086422       -0.7555651814       -0.6268279113
C                -0.4054449751       -1.0751283160       -0.7013643999
C                -1.3527863645       -0.3333090238       -0.0077964760
N                -2.6857255497       -0.6448685966       -0.0845474570
C                -3.6402169370        0.0581150384        0.5845211539
C                -5.0319656262       -0.3771198519        0.4002305300
C                -5.4826011162       -0.8139005723       -0.8443851626
C                -6.7957491990       -1.2084050016       -1.0180435587
C                -7.6832856294       -1.1950509743        0.0491666902
C                -9.1152699361       -1.6424140857       -0.1196970945
O               -10.0355969981       -0.8944332381        0.6395686452
C               -10.2016159271        0.4231671444        0.1770216398
C                -7.2345057494       -0.7652529317        1.2928839950
C                -5.9286167993       -0.3540980689        1.4669283717
C                -3.2993255609        1.1178690372        1.3655665148
C                -1.9339185550        1.5548978865        1.5357218428
O                -1.6063176170        2.5030727936        2.2391011454
C                -0.9421801312        0.7567814554        0.7851926035
C                 0.4053784527        1.0763083412        0.8597755368
C                 1.3527186902        0.3344836652        0.1662119526
N                 2.6856788595        0.6459210864        0.2431055073
C                 5.4823312492        0.8140837102        1.0040152469
C                 6.7955352948        1.2081828820        1.1781632728
H                10.5670562757       -0.4355537077        1.0191212075
H                 9.2644207357       -0.9915857737       -0.0633820904
H                10.9399942387       -0.8888236670       -0.6651961654
H                 9.2190466838        2.6708455523       -0.0807212662
H                 9.3898529370        1.6190961739        1.3469586182
H                 7.9278677773        0.7527844976       -1.9607499274
H                 5.5898179065        0.0321441242       -2.2795961033
H                 4.0626985186       -1.6854793094       -1.7126039333
H                -0.6919333150       -1.9161705425       -1.3162011425
H                -2.9570576037       -1.4501454127       -0.6309453589
H                -4.8164010938       -0.8089289669       -1.6958011101
H                -7.1333967642       -1.5296102869       -1.9930026993
H                -9.3900270307       -1.6199976300       -1.1858854261
H                -9.2183129970       -2.6718685546        0.2415937910
H               -10.5678611592        0.4341710214       -0.8573468443
H               -10.9402137506        0.8871574029        0.8271764071
H                -9.2649402427        0.9905485168        0.2246353704
H                -7.9270491957       -0.7533537827        2.1212931510
H                -5.5891322187       -0.0319834181        2.4392663499
H                -4.0626446240        1.6858813170        1.8720258947
H                 0.6918723049        1.9173449779        1.4746172549
H                 2.9570605802        1.4510998786        0.7896252586
H                 4.8157991908        0.8093031690        1.8551743995
H                 7.1329257272        1.5292888637        2.1532439517



