%chk=./calculation/no_transfer_pubchem_sampling_6_b3lyp/139848933.chk
%nprocshared=7
%mem=6GB
#p b3lyp/6-31g(d) opt SCF=XQC 

Gaussian input prepared by ASE

0 1
C                 7.2379000176       -0.8953532530        2.7138457784
C                 8.0902563618       -0.5878174624        1.7553182519
C                 7.8888920537       -0.9353920532        0.3142164398
C                 7.6167871485        0.3347482449       -0.5077667269
O                 6.5128142827        1.0666063264       -0.0281330806
C                 5.2538847177        0.5512284968       -0.1530516508
C                 4.8934284812       -0.5115764188       -0.9726991203
C                 3.5702822661       -0.9215056359       -1.0321646828
C                 2.5972032123       -0.2922529813       -0.2799348801
C                 2.9556102284        0.7817234762        0.5364502458
C                 4.2689336007        1.1983042774        0.5946121572
C                 1.8431726067        1.4382717350        1.2917290920
C                 0.6972282252        1.7653338568        0.3260593652
C                 0.2693146710        0.5619839086       -0.5452341079
C                -1.1766514368        0.1959651060       -0.3337887161
C                -1.6515618135       -0.0846324917        0.9639122555
C                -2.9528170412       -0.4360541802        1.1782623651
C                -3.8637521886       -0.5304573052        0.1056481997
C                -5.2136246546       -0.8883698730        0.2917474471
C                -6.0832588464       -0.9727184078       -0.7641184572
C                -7.5313829820       -1.3161746316       -0.5673576977
C                -8.4201561302       -0.0685793380       -0.6635869202
C                -8.1405213712        0.9207534697        0.4601161670
C                -5.6084983897       -0.6956182204       -2.0618961329
C                -4.3067174009       -0.3458411531       -2.2774699780
C                -3.3970877520       -0.2511420176       -1.2036905171
C                -2.0471272204        0.1078242294       -1.3883759173
C                 1.1524751445       -0.6780226572       -0.2897657036
H                 6.3346080675       -1.4484061323        2.5121359426
H                 7.4026443503       -0.6091208905        3.7385069334
H                 8.9841257319       -0.0187949990        1.9752652923
H                 7.0465015630       -1.6220166590        0.2183035126
H                 8.7837577417       -1.4145067005       -0.0898581903
H                 8.4593996100        1.0254390190       -0.4104917350
H                 7.4954790683        0.0843701838       -1.5700084338
H                 5.6239673198       -1.0234237907       -1.5797006721
H                 3.3023860696       -1.7477913293       -1.6757878206
H                 4.5637210079        2.0287953582        1.2175990527
H                 2.1882752562        2.3505272859        1.7802653427
H                 1.4838092516        0.7565922612        2.0683065418
H                -0.1591469962        2.1356268037        0.8929265312
H                 1.0285995636        2.5747172823       -0.3269471260
H                 0.4002911125        0.8353313270       -1.5971732861
H                -0.9710453915       -0.0165529055        1.8003547931
H                -3.3047847169       -0.6480008559        2.1784307705
H                -5.5569474633       -1.0992136531        1.2955699264
H                -7.8426167673       -2.0303578108       -1.3339175429
H                -7.6733299219       -1.7814992660        0.4101217655
H                -9.4675433979       -0.3766748016       -0.6244117910
H                -8.2503076524        0.4194292598       -1.6257727794
H                -8.7825960655        1.7937627200        0.3674755841
H                -7.1041288254        1.2496233619        0.4282078533
H                -8.3255262603        0.4603471186        1.4285284259
H                -6.2951016831       -0.7687551855       -2.8938144824
H                -3.9530951229       -0.1373485527       -3.2776416960
H                -1.7043370823        0.3180426035       -2.3927070263
H                 0.9519438123       -1.4296765609       -1.0553396056
H                 0.8859760300       -1.1115155386        0.6786894443



