%chk=calculation/no_transfer_pubchem_sampling_6_b3lyp/139848933_rwf.chk
%rwf=calculation/no_transfer_pubchem_sampling_6_b3lyp/139848933_rwf.rwf
%nprocshared=14
%mem=3GB
#p b3lyp/6-31g(d) 6D 10F nosymm GFInput td=(50-50,nstate=2) SCF=XQC 

Gaussian input prepared by ASE

0 1
C                 8.3411799023       -0.7795905794        2.5519936284
C                 8.7060444836       -0.3617239749        1.3404236227
C                 8.1199991292       -0.8536012935        0.0448488899
C                 7.5419658688        0.2745402063       -0.8230409715
O                 6.4908260598        0.9951323067       -0.1874062468
C                 5.2308869798        0.4612529027       -0.1330483902
C                 4.8263777267       -0.7259036401       -0.7533528609
C                 3.4932775505       -1.1379723959       -0.6448244913
C                 2.5607409121       -0.4003236206        0.0794506357
C                 2.9761184817        0.7928220275        0.7039912734
C                 4.2961019801        1.2151827870        0.5930107527
C                 1.9324282864        1.5457514023        1.4927777054
C                 0.5946876583        1.6941348060        0.7248426670
C                 0.2063822771        0.4451955937       -0.1337452202
C                -1.2711167197        0.1056569849       -0.0482508185
C                -1.8679715001       -0.2431512307        1.1974544636
C                -3.2005266742       -0.5709353476        1.2867388167
C                -4.0335719495       -0.5692245031        0.1357309072
C                -5.4139138200       -0.8995904487        0.1896194593
C                -6.2106993786       -0.8907788323       -0.9381877188
C                -7.6859357288       -1.2266865919       -0.8773742135
C                -8.6187214087       -0.0063391620       -1.0457971150
C                -8.5193830387        1.0109753299        0.0943678431
C                -5.6144893388       -0.5425629758       -2.1835036316
C                -4.2813239864       -0.2177778063       -2.2740636259
C                -3.4495910540       -0.2190713578       -1.1219630754
C                -2.0688518604        0.1091854635       -1.1752578173
C                 1.1052336756       -0.7770771507        0.2062506525
H                 7.5613872851       -1.5261745760        2.6879910001
H                 8.8045355118       -0.3911994712        3.4549542894
H                 9.4872927099        0.3956856918        1.2513228265
H                 7.3506594136       -1.6076885534        0.2449661639
H                 8.9015330298       -1.3459813845       -0.5552507554
H                 8.3120588254        1.0295496272       -1.0127611050
H                 7.2130622652       -0.1118992717       -1.7968149668
H                 5.5222981185       -1.3301239658       -1.3238361417
H                 3.1845541711       -2.0572902657       -1.1384353033
H                 4.6320771114        2.1348200043        1.0642193852
H                 2.3037059358        2.5317834151        1.7938090936
H                 1.7391379337        0.9952709133        2.4261135808
H                -0.1985188623        1.9157156792        1.4471702751
H                 0.6538579270        2.5647192233        0.0619562478
H                 0.4227079587        0.6865302253       -1.1811871552
H                -1.2565072979       -0.2500326463        2.0967364818
H                -3.6355101788       -0.8357105084        2.2480344193
H                -5.8447152249       -1.1685037114        1.1525410391
H                -7.9222503795       -1.9562571595       -1.6642974565
H                -7.9095800645       -1.7175657768        0.0787888138
H                -9.6518750283       -0.3707629133       -1.1231332823
H                -8.3953776102        0.4886313577       -2.0006152359
H                -9.2012655972        1.8532709313       -0.0688453156
H                -7.5041377401        1.4123283620        0.1836469487
H                -8.7812769454        0.5523280782        1.0563243095
H                -6.2307377066       -0.5417223205       -3.0801983626
H                -3.8440952090        0.0405471195       -3.2360724473
H                -1.6371608173        0.3722016964       -2.1395727691
H                 0.8565475703       -1.6123459017       -0.4581153242
H                 0.8814423808       -1.1174587979        1.2288746260



