%chk=calculation/no_transfer_pubchem_sampling_6_b3lyp/1403061_rwf.chk
%rwf=calculation/no_transfer_pubchem_sampling_6_b3lyp/1403061_rwf.rwf
%nprocshared=14
%mem=3GB
#p b3lyp/6-31g(d) 6D 10F nosymm GFInput td=(50-50,nstate=2) SCF=XQC 

Gaussian input prepared by ASE

0 1
C                 6.7826749498       -1.5294710188        2.7193948624
C                 6.5729228884       -1.8546409818        1.2292568876
C                 5.1789083225       -1.5227714736        0.7413973346
C                 4.8677368768       -0.2572955727        0.2301903311
C                 3.5817897954        0.0832304272       -0.1871567758
C                 2.5524737254       -0.8650401211       -0.0974587983
N                 1.2315589841       -0.6439882637       -0.5446383210
C                 0.5652008721        0.5480497334       -0.7709007798
N                 1.1169976970        1.7115097575       -0.5322839050
C                 0.3546317144        2.8330567372       -0.7242188492
C                 0.9082725677        4.1094551412       -0.4739761232
C                 0.1312185774        5.2419759801       -0.6218018535
C                -1.2189824724        5.1399535393       -1.0253172206
C                -1.7798766374        3.9035251863       -1.2811772577
C                -1.0035749513        2.7329838928       -1.1385657081
N                -1.5498467353        1.5099886534       -1.4385002800
C                -0.7925664877        0.4622458785       -1.3020329729
N                -1.2841824500       -0.8202712797       -1.6108416210
S                -2.8046141007       -1.1342494494       -2.3779289289
O                -3.0603806370       -0.2038329848       -3.4723376940
O                -2.7005231363       -2.5756302822       -2.6248084162
C                -3.9823215608       -0.8387948325       -1.0654622422
C                -4.6303937768        0.3921823350       -0.9941468149
C                -5.5664566347        0.5819363755        0.0235782560
C                -5.8369982575       -0.4401114885        0.9321385667
C                -5.1887470941       -1.6829824757        0.8521382229
C                -5.5063682390       -2.7849654651        1.8359696270
C                -4.2515420780       -1.8738594133       -0.1665968104
C                 2.8492422656       -2.1405620799        0.4096246479
C                 4.1392172372       -2.4588057550        0.8193326982
H                 6.0819126673       -2.0923326739        3.3464344425
H                 7.8013415343       -1.7817032600        3.0364553417
H                 6.6191526973       -0.4636962119        2.9148746180
H                 7.3105313495       -1.3015191255        0.6338982779
H                 6.7764617711       -2.9202267257        1.0621614630
H                 5.6535059478        0.4912579851        0.1506270380
H                 3.3691765973        1.0725935921       -0.5656276751
H                 0.6140175885       -1.4284777095       -0.3786660047
H                 1.9452924929        4.1654767889       -0.1572335536
H                 0.5597337212        6.2209062934       -0.4252155082
H                -1.8158314318        6.0405239185       -1.1390306203
H                -2.8108802223        3.8001987425       -1.6054893568
H                -0.6052598981       -1.4590666945       -2.0214779249
H                -4.3982566577        1.1688328918       -1.7122519850
H                -6.0875886210        1.5314820504        0.1052390817
H                -6.5703607217       -0.2752041957        1.7184546701
H                -5.3211541463       -2.4629003780        2.8678575420
H                -4.8989037843       -3.6752552070        1.6484149988
H                -6.5606892012       -3.0810142298        1.7743921926
H                -3.7412810094       -2.8254435040       -0.2766518705
H                 2.0630644189       -2.8911159065        0.4754987638
H                 4.3405426828       -3.4561361410        1.2044680071



