%chk=./calculation/no_transfer_pubchem_sampling_6_b3lyp/140787168.chk
%nprocshared=7
%mem=6GB
#p b3lyp/6-31g(d) opt SCF=XQC 

Gaussian input prepared by ASE

0 1
C               -10.3423547104        2.1571246328        0.1411152190
C                -9.1868695142        1.3391691579       -0.3508048738
C                -8.9966295629        1.1382427640       -1.7142045285
C                -7.9400893700        0.3824165122       -2.1804252358
C                -7.0520567631       -0.1957563233       -1.2814968857
S                -5.7338456587       -1.1920224956       -1.9309664250
C                -4.4734929025       -1.0044655958       -0.7021654940
C                -3.7825961338       -2.1295691959       -0.2614754165
C                -2.7717651728       -2.0106720161        0.6647028592
C                -2.4391367664       -0.7492116414        1.1795020837
S                -0.9796700558       -0.4139771861        2.1416848667
C                -1.0524198489       -1.9164765268        3.2541470801
C                 0.5553973006       -0.8016002313        1.3278401626
C                 0.7241627654       -1.9288112610        0.5078483418
C                 1.8223045081       -2.0319356804       -0.3065930166
C                 2.7857259516       -1.0152318742       -0.3488571096
O                 3.8358683389       -1.2033191886       -1.1953703303
C                 5.0400687332       -0.5993365365       -0.9890500567
C                 5.8193010469       -0.3280417193       -2.1308578488
C                 7.0546085237        0.2394483086       -2.0121648471
C                 7.5768994884        0.5545197882       -0.7383129567
S                 9.1291259626        1.2959317741       -0.6654571577
C                 8.9427213923        2.8282389323        0.4595060910
C                10.0281041499        0.3799949303        0.7295273783
C                 6.8049957050        0.2602031103        0.4046162890
C                 5.5615152806       -0.3032284599        0.2758403911
C                 2.5812559250        0.1438259232        0.4149458297
C                 1.4727080744        0.2545450335        1.2135303751
C                -3.1089393400        0.3850724357        0.6946815994
C                -4.1185564874        0.2623370177       -0.2233307283
C                -7.2387644323       -0.0199244265        0.0816793612
C                -8.2943931191        0.7491548353        0.5345613603
H               -10.4433910682        3.0704062567       -0.4424029027
H               -11.2701807212        1.5931827967        0.0400610725
H               -10.2155299212        2.4205735304        1.1882462767
H                -9.6826920105        1.5862077782       -2.4189350293
H                -7.7934928057        0.2338150472       -3.2396268833
H                -4.0551569709       -3.1006091539       -0.6471819110
H                -2.2688212839       -2.8989440380        1.0126614365
H                -0.7272215517       -2.8054866430        2.7284471833
H                -2.0707778836       -2.0198383429        3.6122392761
H                -0.3778853567       -1.7131793315        4.0789455835
H                -0.0023173393       -2.7265338287        0.5183647071
H                 1.9692364120       -2.9044732889       -0.9242302537
H                 5.4138673103       -0.5808238526       -3.0978051530
H                 7.6536974769        0.4545880934       -2.8828563720
H                 9.9280384839        3.1346101359        0.7883612126
H                 8.4904430117        3.5958846147       -0.1565358802
H                 8.3031255733        2.5920899079        1.3000962752
H                10.0471357312       -0.6647035610        0.4426153933
H                 9.5264837340        0.5082183039        1.6803252250
H                11.0358217661        0.7762012932        0.7721809072
H                 7.1952767772        0.4598946861        1.3911602606
H                 4.9920906964       -0.5509293342        1.1599412302
H                 3.2837724233        0.9613498142        0.3502067619
H                 1.3017900634        1.1545002715        1.7850103147
H                -2.8204586029        1.3560323217        1.0685866384
H                -4.6483147060        1.1348633991       -0.5758839669
H                -6.5603908695       -0.4788331614        0.7860052095
H                -8.4273286769        0.8852894878        1.5986250107



