%chk=calculation/no_transfer_pubchem_sampling_6_b3lyp/140832457_rwf.chk
%rwf=calculation/no_transfer_pubchem_sampling_6_b3lyp/140832457_rwf.rwf
%nprocshared=14
%mem=3GB
#p b3lyp/6-31g(d) 6D 10F nosymm GFInput td=(50-50,nstate=2) SCF=XQC 

Gaussian input prepared by ASE

0 1
C                 3.7999999044       -4.2646084641       -2.2599577663
C                 3.8655308109       -3.1536211245       -1.2023537380
C                 4.3745577568       -3.7024244547        0.1371044069
C                 4.7315473483       -1.9766440034       -1.7185533085
C                 4.7313256527       -0.7500362408       -0.8291251969
C                 5.8143303764       -0.4665019311        0.0085335697
C                 5.8237058473        0.6680168856        0.8347372352
C                 6.9654673822        0.9691684475        1.7402327632
C                 7.8642189987       -0.0256942683        2.1638599982
C                 8.9185770635        0.3192179543        3.0039198098
C                 9.0509658220        1.6446656827        3.4150326316
C                 8.1008156530        2.5614212802        2.9635019190
N                 7.0891701623        2.2467982766        2.1520019706
C                 4.7261331517        1.5364342812        0.7954969611
C                 3.6263575816        1.2822870888       -0.0356797377
C                 2.4960447018        2.2429949596       -0.0812969734
C                 2.7204360090        3.6250260447       -0.0373700475
C                 1.6760347307        4.5637856018       -0.0798670655
C                 0.3435394464        4.1699362602       -0.1633483639
C                 0.1083433639        2.7964458705       -0.1996664551
C                 1.1438273243        1.8418735437       -0.1669621809
N                 0.5848541214        0.5820246763       -0.2112523420
C                -0.7357068636        0.7214468017       -0.2744400922
C                -1.6311034059       -0.4407564265       -0.3270456629
C                -3.0366216447       -0.3122248449       -0.3254942603
C                -3.8800824233       -1.4123801828       -0.3774937556
C                -5.4155120580       -1.2958266164       -0.3741375884
C                -5.9845297804       -1.9151748706       -1.6730741411
C                -5.8911144407        0.1669385143       -0.2955028064
C                -5.9910336349       -2.0526435749        0.8467240531
C                -3.2756522598       -2.6821476438       -0.4371464194
C                -1.8995568075       -2.8942142473       -0.4356983181
C                -1.3052052708       -4.3193043006       -0.4972960653
C                -0.4395409017       -4.4785121092       -1.7715539114
C                -0.4520509954       -4.5996587097        0.7647926535
C                -2.4027778873       -5.4021430168       -0.5546169450
C                -1.0603280977       -1.7482848587       -0.3727388575
O                 0.2736115945       -1.9369830439       -0.3558123101
N                -1.0841550775        2.0729517589       -0.2665664511
C                -2.3499326896        2.7354693402       -0.4082980573
C                -2.9777713526        3.2866413350        0.7044997122
C                -2.4538604531        3.1661268708        2.0941570258
C                -2.3105514818        4.3236195097        2.8775918942
C                -1.8487547866        4.2456392977        4.1906784559
C                -1.5303018444        3.0063711600        4.7479931349
C                -1.6791421787        1.8482338037        3.9833328808
C                -2.1362853789        1.9250221839        2.6681517606
C                -4.1796243481        4.0256424847        0.4978208597
C                -4.7165496238        4.1983209968       -0.7529852833
C                -4.0818245550        3.6553794846       -1.9002943224
C                -4.6096511252        3.8331972072       -3.2064716782
C                -3.9623596539        3.3155918987       -4.3049711377
C                -2.7544330482        2.5972098610       -4.1400109709
C                -2.2181930106        2.4011632260       -2.8866570218
C                -2.8653676174        2.9181713502       -1.7317067721
C                 3.6421473301        0.1295922768       -0.8372912634
H                 4.7975921218       -4.6791956280       -2.4580105419
H                 3.1576983400       -5.0880735651       -1.9269278962
H                 3.3994578225       -3.8912275636       -3.2102009050
H                 2.8462801574       -2.7736231539       -1.0458710972
H                 5.3893055821       -4.1111618850        0.0334330116
H                 4.4021745979       -2.9251318137        0.9077903095
H                 3.7270161571       -4.5100700710        0.4979112419
H                 4.3685785131       -1.6956838472       -2.7164572560
H                 5.7630071875       -2.3314065629       -1.8533982251
H                 6.6735361898       -1.1313705078       -0.0113027807
H                 7.7267580169       -1.0574083431        1.8589560476
H                 9.6204229170       -0.4396253563        3.3401228621
H                 9.8568695879        1.9599947379        4.0707605768
H                 8.1569236214        3.6059394135        3.2681928270
H                 4.7369399817        2.4091495256        1.4379656904
H                 3.7445757806        3.9828708401        0.0065675052
H                 1.9178147463        5.6225335826       -0.0539786512
H                -0.4661579610        4.8908022050       -0.1975995474
H                -3.4631270898        0.6775596213       -0.2801495021
H                -5.7154643396       -2.9720606208       -1.7736975789
H                -7.0796869932       -1.8487129696       -1.6819308479
H                -5.6042899032       -1.3884056379       -2.5557550161
H                -5.5471751889        0.7557018676       -1.1531168602
H                -6.9867636697        0.1987275604       -0.2913479336
H                -5.5439528030        0.6612739123        0.6189211015
H                -7.0861850056       -1.9871109188        0.8569197665
H                -5.7225883209       -3.1143464962        0.8339503766
H                -5.6161932692       -1.6251485807        1.7838053543
H                -3.9248675792       -3.5474458569       -0.4822781694
H                -0.0183800111       -5.4910418764       -1.8133228236
H                 0.3831130156       -3.7624504805       -1.7919600302
H                -1.0480997487       -4.3317762348       -2.6721664326
H                -1.0683051747       -4.5310793308        1.6694795408
H                 0.3747608402       -3.8944050370        0.8574801138
H                -0.0391386057       -5.6152928911        0.7172616258
H                -1.9292370310       -6.3893015443       -0.5985737834
H                -3.0466824759       -5.3872980685        0.3325174346
H                -3.0369788630       -5.3036947890       -1.4434028866
H                 0.7127321857       -1.0364400593       -0.2592634845
H                -2.5455251239        5.2928210727        2.4453143430
H                -1.7339684966        5.1541216975        4.7758801617
H                -1.1698203989        2.9433603614        5.7711009412
H                -1.4421238363        0.8778951299        4.4109780151
H                -2.2680220112        1.0138342613        2.0943087088
H                -4.6811428385        4.4393874018        1.3672620017
H                -5.6412193206        4.7562203713       -0.8787191073
H                -5.5355690832        4.3913997315       -3.3216311064
H                -4.3736489573        3.4587175229       -5.3002231402
H                -2.2449739898        2.1954728222       -5.0113654099
H                -1.2915681485        1.8495049870       -2.7743955797
H                 2.8033334386       -0.0703382180       -1.4972603920



