%chk=./calculation/no_transfer_pubchem_sampling_6_b3lyp/141434745.chk
%nprocshared=7
%mem=6GB
#p b3lyp/6-31g(d) opt SCF=XQC 

Gaussian input prepared by ASE

0 1
N                -1.0863494154        0.9130622412       -2.0073637179
C                -1.3448926282        1.2215568187       -0.6058797277
C                -0.1232805371        1.6210383163        0.2312361803
C                -0.3284007979        2.4876646602        1.2985133020
C                 0.7092441516        2.9135930348        2.1048152065
C                 1.9984917615        2.4840296125        1.8447346563
C                 2.2291190153        1.6170474896        0.7962175020
C                 1.1785751636        1.1663727361        0.0020705417
O                 1.4339995246        0.3226214678       -1.0597303499
C                 2.3309702181       -0.7038029633       -0.9289573475
C                 2.6018531895       -1.3431690588        0.2765885385
C                 3.4692997651       -2.4201145181        0.2994372126
C                 4.0653408095       -2.8709395397       -0.8654288431
C                 3.7838209364       -2.2410337649       -2.0665920629
C                 2.9213471649       -1.1630389128       -2.1033158387
N                -2.2196786688        2.3827525196       -0.6419458299
C                -3.4659789525        2.2371690775       -0.5426849495
N                -4.1249980751        1.0715847950       -0.2770306311
C                -3.4007000594       -0.0478447595        0.1015959499
C                -4.0409464807       -1.1775350178        0.5984035164
C                -3.2991246866       -2.2739299637        0.9934235736
C                -1.9180914549       -2.2412028851        0.9070555853
C                -1.2815931849       -1.1123753353        0.4185940653
C                -2.0071642205       -0.0081193059        0.0058339188
H                -0.7043343803        1.7345658670       -2.4636044698
H                -0.4165317826        0.1577812005       -2.0896047609
H                -1.3320093612        2.8392431669        1.4820801541
H                 0.5138138514        3.5852788973        2.9268813847
H                 2.8250169548        2.8226849855        2.4513233973
H                 3.2318647205        1.2795300476        0.5749486525
H                 2.1358945521       -1.0015602203        1.1900122648
H                 3.6749459519       -2.9115156274        1.2389405581
H                 4.7424988655       -3.7109311363       -0.8380164369
H                 4.2404040194       -2.5889429531       -2.9811345228
H                 2.6888668991       -0.6632622433       -3.0309607373
H                -4.0922386414        3.1148979512       -0.6535123641
H                -5.1287581597        1.0497056637       -0.1874105139
H                -5.1198689414       -1.1890978885        0.6673826379
H                -3.8002184517       -3.1529349705        1.3707793018
H                -1.3341498194       -3.0958881073        1.2134430053
H                -0.2060578149       -1.1049413773        0.3488629987



