%chk=calculation/no_transfer_pubchem_sampling_6_b3lyp/141434745_rwf.chk
%rwf=calculation/no_transfer_pubchem_sampling_6_b3lyp/141434745_rwf.rwf
%nprocshared=14
%mem=3GB
#p b3lyp/6-31g(d) 6D 10F nosymm GFInput td=(50-50,nstate=2) SCF=XQC 

Gaussian input prepared by ASE

0 1
N                -1.2055094545        1.1555705148       -1.8740882333
C                -1.3893914678        1.3058926579       -0.4136498278
C                -0.1005427262        1.7138043189        0.3491475679
C                -0.1709328195        2.7152539338        1.3277788910
C                 0.9535594114        3.1709716612        2.0135398238
C                 2.2056630669        2.6368748498        1.7152921095
C                 2.3156025940        1.6402042163        0.7491124695
C                 1.1738905780        1.1682060355        0.0944595818
O                 1.2861540569        0.1942790365       -0.8946315246
C                 2.2279042017       -0.8163552384       -0.8288534557
C                 2.5845790476       -1.4576955468        0.3619771248
C                 3.4807104142       -2.5267362441        0.3182603266
C                 4.0147030707       -2.9620232687       -0.8959309279
C                 3.6463010989       -2.3165136183       -2.0781498804
C                 2.7575777718       -1.2426859974       -2.0490110414
N                -2.3422958565        2.4283273966       -0.2885017113
C                -3.5784006436        2.1583306904       -0.4580426941
N                -4.1215188644        0.8984989629       -0.5697883206
C                -3.3813204351       -0.1920917246       -0.1012088563
C                -4.0083172656       -1.3983138163        0.2272226461
C                -3.2613479151       -2.4370768132        0.7759235278
C                -1.8988821423       -2.2608435395        1.0206557204
C                -1.2842949451       -1.0518826001        0.6888575922
C                -1.9997294709       -0.0084045234        0.0994773675
H                -0.9171616420        2.0653452150       -2.2377463348
H                -0.4386768527        0.5087614327       -2.0453279816
H                -1.1425136165        3.1524036122        1.5254379570
H                 0.8509025222        3.9482406920        2.7656549184
H                 3.0981232981        2.9950121009        2.2214437358
H                 3.2838200895        1.2213453343        0.4968046043
H                 2.1751720524       -1.1206801974        1.3081759826
H                 3.7569048236       -3.0239393834        1.2443311988
H                 4.7104798503       -3.7956191556       -0.9204162710
H                 4.0542911449       -2.6452681298       -3.0301141323
H                 2.4612802551       -0.7287254271       -2.9581042089
H                -4.3034741251        2.9725364845       -0.5018953961
H                -5.1284658456        0.8129472225       -0.5902814231
H                -5.0783087537       -1.5114925377        0.0649663880
H                -3.7483564976       -3.3757640284        1.0257374385
H                -1.3120073723       -3.0626036220        1.4593544358
H                -0.2261696358       -0.9280909565        0.8821318137



