%chk=./calculation/no_transfer_pubchem_sampling_6_b3lyp/145413862.chk
%nprocshared=7
%mem=6GB
#p b3lyp/6-31g(d) opt SCF=XQC 

Gaussian input prepared by ASE

0 1
C                 4.2804193895       -1.3400998656        0.1083642302
C                 3.2581029166       -0.4473651418       -0.5271800070
C                 3.5912111529        0.3572027225       -1.6105722124
C                 2.6362867331        1.1615980008       -2.2080705901
C                 1.3368600272        1.1756458201       -1.7380022840
C                 0.9905652160        0.3838717816       -0.6458387000
N                -0.3263304150        0.3780460181       -0.1559157624
C                -1.0385134746       -0.8347491753       -0.0362413535
C                -2.2531150859       -0.8660996623        0.5338441431
C                -3.0651307494       -2.1255541409        0.5966011565
C                -2.1529431852       -3.3456537055        0.6906855069
C                -1.0389407211       -3.2401542998       -0.3095614529
C                -0.5137881221       -2.0558284532       -0.6192060965
O                -2.9062365244        0.2462243703        1.0133466899
C                -2.2295220857        1.4441849862        0.8887142420
C                -2.8693589718        2.5684601766        1.3662459450
C                -2.2406759287        3.8083592100        1.3245873720
C                -0.9624644746        3.8988889299        0.8211840693
C                -0.3163492410        2.7695053122        0.3334624986
C                -0.9430116892        1.5308219702        0.3316314012
C                 1.9567682047       -0.4221850222       -0.0500284418
H                 5.2795593458       -0.9245865470        0.0003985465
H                 4.0682097848       -1.4824246471        1.1653784222
H                 4.2682015926       -2.3190472874       -0.3722709960
H                 4.6030043613        0.3515455785       -1.9887506321
H                 2.9045069061        1.7766198733       -3.0546178497
H                 0.5852848623        1.7861766034       -2.2158003058
H                -3.7370869631       -2.0712903466        1.4538445903
H                -3.6855505174       -2.1887189504       -0.3059092048
H                -1.7166903918       -3.4039398436        1.6954032005
H                -2.7298604870       -4.2567255579        0.5299044631
H                -0.6511052719       -4.1516627320       -0.7364525904
H                 0.3020941465       -1.9664226829       -1.3193479986
H                -3.8594074527        2.4562717015        1.7789658981
H                -2.7518147392        4.6814069358        1.6986272526
H                -0.4469824933        4.8471329339        0.8028040091
H                 0.6928415225        2.8555585611       -0.0369165208
H                 1.6809618233       -1.0350134242        0.7966913615



