%chk=calculation/no_transfer_pubchem_sampling_6_b3lyp/145413862_rwf.chk
%rwf=calculation/no_transfer_pubchem_sampling_6_b3lyp/145413862_rwf.rwf
%nprocshared=14
%mem=3GB
#p b3lyp/6-31g(d) 6D 10F nosymm GFInput td=(50-50,nstate=2) SCF=XQC 

Gaussian input prepared by ASE

0 1
C                 4.1918997489       -1.0498941170        0.5982151747
C                 3.2145510482       -0.3394665791       -0.3098875502
C                 3.6445752630        0.2542829905       -1.5053199448
C                 2.7373894629        0.8837902119       -2.3566917481
C                 1.3806894663        0.9306321926       -2.0314851754
C                 0.9380544104        0.3588497729       -0.8347628364
N                -0.4561851507        0.4065106919       -0.4918742884
C                -1.1260257565       -0.8254778497       -0.2392863880
C                -2.1302348341       -0.9128459133        0.6534498292
C                -2.9576413496       -2.1551481931        0.8096119876
C                -2.1382939967       -3.4118528251        0.4687746143
C                -1.2979055629       -3.2101076710       -0.7711949030
C                -0.8130041360       -1.9939642561       -1.0682291892
O                -2.5910331274        0.1612272969        1.3879547406
C                -2.0321127363        1.3973013998        1.0974720887
C                -2.5682075311        2.4900299883        1.7647321148
C                -2.0434123865        3.7690841645        1.5576575719
C                -0.9814445601        3.9324460044        0.6743735932
C                -0.4513943305        2.8312976406       -0.0055155814
C                -0.9648770963        1.5450752000        0.1888820200
C                 1.8557845527       -0.2704476496        0.0151104391
H                 5.1725560403       -0.5618305768        0.5915484864
H                 3.8328255926       -1.0752792728        1.6321052246
H                 4.3446205757       -2.0897935462        0.2798489570
H                 4.6987643354        0.2195829268       -1.7707069643
H                 3.0857889101        1.3330226503       -3.2829244394
H                 0.6600193751        1.3970219783       -2.6964035734
H                -3.3361856827       -2.2104857757        1.8363639920
H                -3.8425614654       -2.0843980666        0.1549173776
H                -1.4708761868       -3.6494200533        1.3145944955
H                -2.8068313044       -4.2724324943        0.3552891668
H                -1.0486213404       -4.0695454857       -1.3877074561
H                -0.1732124939       -1.8374443474       -1.9316135571
H                -3.3872591684        2.3152682836        2.4556530707
H                -2.4625087054        4.6187612485        2.0882221527
H                -0.5535871704        4.9162162159        0.5034857288
H                 0.3808258548        2.9696017733       -0.6862633392
H                 1.4950704362       -0.7101679577        0.9416061080



