%chk=calculation/no_transfer_pubchem_sampling_6_b3lyp/145979992_rwf.chk
%rwf=calculation/no_transfer_pubchem_sampling_6_b3lyp/145979992_rwf.rwf
%nprocshared=14
%mem=3GB
#p b3lyp/6-31g(d) 6D 10F nosymm GFInput td=(50-50,nstate=2) SCF=XQC 

Gaussian input prepared by ASE

0 1
O               -11.8698595056        2.8038855732        2.8563630019
C               -10.9593863322        3.1351010586        2.1087315487
N                -9.9331576850        2.2334319534        1.7944535881
C                -8.8668783697        2.5026938834        0.9583554993
C                -7.8678115532        1.4332430596        0.7489392180
C                -7.0028557584        1.5186814434       -0.3511400102
C                -6.0456906120        0.5400862970       -0.6003966448
C                -5.9301860118       -0.5578230393        0.2654034581
O                -5.0353425473       -1.5691218629        0.1211901182
C                -4.1221700372       -1.5383565621       -0.9777103301
C                -3.2437855635       -2.7775806693       -0.8810272510
C                -2.1984012640       -2.8328194603       -2.0108245742
C                -1.3757936465       -4.0858970036       -1.9713229098
C                -0.0451527232       -4.2739982195       -1.6601638108
N                 0.1470447663       -5.6148333644       -1.7750625497
C                 1.3572846264       -6.3844307598       -1.5282942070
C                 1.6999489147       -6.4060912279       -0.0294453724
O                 2.9167728535       -7.0763246941        0.2496788930
C                 4.1232806295       -6.4529440601       -0.1743642710
C                 4.3161312032       -5.0066004111        0.2809291189
O                 3.5969976244       -4.0675499389       -0.5346711622
C                 4.3466715703       -3.4459330582       -1.5671231464
C                 5.0117408053       -2.1505843004       -1.1246147665
O                 6.1072105910       -2.4688652635       -0.2685586813
C                 6.8339457810       -1.4546398307        0.2798770125
C                 7.8974462824       -1.8553253393        1.1177978677
C                 8.6959915402       -0.9026160133        1.7167596972
C                 8.4700579892        0.4703633558        1.5074235135
C                 9.3098253385        1.5060563796        2.1418428430
O                10.2544392165        1.2393941113        2.8851754513
C                 8.9086554576        2.8706354099        1.8126962754
C                 7.8727863445        3.1465556280        0.9805481518
C                 7.4026465660        4.4888468705        0.5895473421
C                 6.0992264624        4.6732362413        0.0981627340
C                 5.6491970501        5.9444925959       -0.2519013419
C                 6.4916632450        7.0498409747       -0.1235473636
C                 7.7926211535        6.8749847593        0.3543004067
C                 8.2466231608        5.6067588420        0.7051300294
O                 7.1216709691        2.1537917491        0.4120626435
C                 7.4101501990        0.8400299218        0.6750881982
C                 6.5835890165       -0.1027864491        0.0524723219
N                -1.0025743684       -6.2308893182       -2.1309917733
N                -1.9190673041       -5.3094081064       -2.2512029635
C                -6.7815025580       -0.6503499769        1.3778148657
C                -7.7330842544        0.3302820389        1.6128111236
N                -8.7274385729        3.6504031807        0.3602052255
C                -9.6859316673        4.6237357045        0.5844358886
C                -9.5478335514        5.8684556738       -0.0643027246
C               -10.4815655537        6.8719133713        0.1409958066
C               -11.5800851399        6.6700739133        0.9967929963
C               -11.7344746233        5.4533989483        1.6432265431
C               -10.7956329344        4.4300991845        1.4440643257
H               -10.0533962542        1.3100684459        2.1923166147
H                -7.0964128563        2.3721176367       -1.0134645368
H                -5.4013838029        0.6367363073       -1.4663745260
H                -3.5162909151       -0.6213507568       -0.9305974312
H                -4.6793357959       -1.5274603023       -1.9255898957
H                -2.7422596744       -2.7851459623        0.0940688517
H                -3.8732321732       -3.6727261919       -0.9251922036
H                -2.7104332294       -2.7766781156       -2.9806547507
H                -1.5355107441       -1.9600974116       -1.9522703019
H                 0.7511799525       -3.6031430747       -1.3739168073
H                 1.1710580798       -7.3930565625       -1.9015668122
H                 2.1734993491       -5.9391747231       -2.1032789878
H                 1.7093202569       -5.3792365745        0.3564810592
H                 0.9270964906       -6.9631366139        0.5086000944
H                 4.2401700491       -6.5055104486       -1.2690235013
H                 4.9138508079       -7.0703465657        0.2663207959
H                 3.9434572436       -4.8892280400        1.3045452100
H                 5.3830311331       -4.7614785860        0.2845872783
H                 5.1025589500       -4.1267348339       -1.9835858732
H                 3.6375987870       -3.2031333699       -2.3674922659
H                 5.3713174878       -1.5996616125       -2.0063363541
H                 4.2819259015       -1.5268248791       -0.5920122593
H                 8.0640779930       -2.9164485879        1.2713640055
H                 9.5201584581       -1.1812193976        2.3656711123
H                 9.4640340900        3.6755814862        2.2777119626
H                 5.4403308123        3.8178940334        0.0008581664
H                 4.6362422149        6.0714443247       -0.6238065964
H                 6.1397888358        8.0402386196       -0.3985683464
H                 8.4597797460        7.7274677831        0.4454244700
H                 9.2680222095        5.4809695137        1.0497038853
H                 5.7816002702        0.2472183557       -0.5847175387
H                -6.6698220178       -1.4968238871        2.0475022003
H                -8.3478743097        0.2395971204        2.5045378800
H                -8.6945725431        6.0105947449       -0.7200104257
H               -10.3631677845        7.8266225652       -0.3649872708
H               -12.3034703868        7.4658785054        1.1490085386
H               -12.5708948505        5.2614838613        2.3079267068



