%chk=./calculation/no_transfer_pubchem_sampling_6_b3lyp/145979992.chk
%nprocshared=7
%mem=6GB
#p b3lyp/6-31g(d) opt SCF=XQC 

Gaussian input prepared by ASE

0 1
O               -11.3165315172        3.0410080066        3.4811223368
C               -10.7248733982        3.1527500254        2.4274937812
N                -9.7054161789        2.2677162863        2.1013687218
C                -8.9833670037        2.3125807650        0.9382023308
C                -7.9282593844        1.3210385036        0.7288183723
C                -7.4703927567        1.0973863687       -0.5686725683
C                -6.4793610448        0.1745858040       -0.8325387198
C                -5.9083441129       -0.5517054871        0.2115689252
O                -4.9332122207       -1.4784693925        0.0769621900
C                -4.4252915918       -1.7656320638       -1.2120038192
C                -3.3611276800       -2.8461187772       -1.0594666881
C                -2.7134052279       -3.1856928968       -2.4046765386
C                -1.7086084698       -4.2717168477       -2.2454571324
C                -0.4042531179       -4.2181213485       -1.7974297600
N                 0.0178224180       -5.5032048316       -1.8351455818
C                 1.2924421663       -6.0180731277       -1.4338108091
C                 1.4278657151       -5.9616586096        0.1002751612
O                 2.6602869487       -6.4393015575        0.5801793246
C                 3.8021215242       -5.6703294583        0.2659868769
C                 3.7192392762       -4.1997696573        0.7019164780
O                 3.0015638607       -3.3850584678       -0.2165376309
C                 3.7641448494       -2.8427670750       -1.2656842309
C                 4.6576393798       -1.6742344605       -0.8292355405
O                 5.8798082091       -2.2006630698       -0.3497784591
C                 6.8466403031       -1.3462968146        0.0705186961
C                 8.0345883499       -1.9497712915        0.5145302693
C                 9.0746902053       -1.1779602696        0.9595176898
C                 8.9770950424        0.2174133087        0.9818892808
C                10.0887581747        1.0556781152        1.4584242536
O                11.1486093183        0.6005808072        1.8562838205
C                 9.7908423436        2.4781626510        1.4081385089
C                 8.6098991843        2.9566254916        0.9568319867
C                 8.2620374335        4.3822590560        0.8992674605
C                 6.9236635269        4.7704324952        0.9574695915
C                 6.5798904242        6.1081032616        0.9152250340
C                 7.5643196436        7.0762673744        0.8075277346
C                 8.8958841555        6.6990548819        0.7378944754
C                 9.2460945700        5.3631422937        0.7825710151
O                 7.6098652211        2.1517807054        0.5286645767
C                 7.7928154494        0.8096553900        0.5420619804
C                 6.7267082190        0.0323064569        0.0865240020
N                -0.9614059911       -6.2856543479       -2.2678575218
N                -1.9879891993       -5.5652544487       -2.5155183752
C                -6.3523659835       -0.3199486360        1.5172638561
C                -7.3450367661        0.5976486366        1.7720908200
N                -9.2051836816        3.1908509043        0.0204131210
C               -10.1882858113        4.1196204886        0.2194353549
C               -10.4266802228        5.0736209999       -0.7781964773
C               -11.4052903606        6.0241603012       -0.6042152119
C               -12.1716091979        6.0543908911        0.5609028758
C               -11.9539035004        5.1254570404        1.5528675848
C               -10.9654582983        4.1536581345        1.3939635546
H                -9.5258030520        1.5372052789        2.7791843848
H                -7.9152114773        1.6654213652       -1.3698171396
H                -6.1580313466        0.0261359416       -1.8511418594
H                -3.9846578059       -0.8605720303       -1.6536980704
H                -5.2313355406       -2.1209934093       -1.8677843104
H                -2.6025014538       -2.4961073342       -0.3569907131
H                -3.8215594489       -3.7412649745       -0.6395702429
H                -3.4781022886       -3.5278949048       -3.1031376420
H                -2.2317131591       -2.2953360600       -2.8161235734
H                 0.2257990013       -3.4139464910       -1.4810880413
H                 1.3618312030       -7.0501149642       -1.7827691451
H                 2.0773412588       -5.4152097876       -1.8986991580
H                 1.2489889831       -4.9308597678        0.4308276435
H                 0.6779753696       -6.6156892976        0.5526060456
H                 4.0260622176       -5.7245017683       -0.8087334078
H                 4.6121950622       -6.1604258321        0.8099782862
H                 3.1782294626       -4.1359311439        1.6497925191
H                 4.7304321612       -3.8105790086        0.8429675527
H                 4.3963433798       -3.6035314959       -1.7407885721
H                 3.0342915699       -2.4766404717       -1.9923275355
H                 4.8442952272       -1.0190688689       -1.6895227914
H                 4.1470878561       -1.1039932378       -0.0428931040
H                 8.1000328857       -3.0256213811        0.4912637653
H                 9.9968608972       -1.6198477508        1.3040553710
H                10.5513318441        3.1510731193        1.7671922622
H                 6.1573405813        4.0157978930        1.0474676245
H                 5.5405897984        6.3967658670        0.9674404353
H                 7.2953161854        8.1213223349        0.7741358795
H                 9.6653169627        7.4507464149        0.6443435542
H                10.2837734459        5.0785899625        0.7061826588
H                 5.8361196996        0.5419919912       -0.2423825154
H                -5.8930519742       -0.8783783140        2.3174764907
H                -7.6384802331        0.7646469920        2.7984134004
H                -9.8255917196        5.0385164271       -1.6730331154
H               -11.5844323387        6.7574314947       -1.3772268144
H               -12.9352681631        6.8079856645        0.6811987654
H               -12.5314992457        5.1223450394        2.4650461354



