%chk=./calculation/no_transfer_pubchem_sampling_6_b3lyp/146406112.chk
%nprocshared=7
%mem=6GB
#p b3lyp/6-31g(d) opt SCF=XQC 

Gaussian input prepared by ASE

0 1
C                 6.5590243085        0.0599359439       -2.9891829317
C                 5.3661515028       -0.5438683614       -2.3130657114
C                 5.2474251333       -1.9427935360       -2.2389176031
C                 4.1802796684       -2.5385328513       -1.6260741222
C                 3.1672473264       -1.7486780951       -1.0594779900
C                 2.0486295138       -2.2891133350       -0.3878904731
C                 1.0885772696       -1.4622179755        0.1214628814
C                 1.2633293058       -0.0590392715       -0.0481770017
N                 2.3102056032        0.4647306815       -0.6300639911
C                 3.2673250366       -0.3337624035       -1.1376601786
C                 4.3890418509        0.2635720140       -1.7646304541
C                 4.4869537822        1.7553282177       -1.8173851180
C                 0.2247837063        0.8356575485        0.4638307320
C                 0.5641477546        2.2640314648        0.6241708843
C                 0.4706441233        2.8779528666        1.8681578044
C                 0.7887105631        4.2153139285        2.0145346283
C                 1.2060319227        4.9546946089        0.9210581984
C                 1.3039812145        4.3491730589       -0.3200440269
C                 0.9859053081        3.0118864855       -0.4695805092
C                -0.9986047471        0.3546318862        0.7615507503
C                -2.0472319111        1.2761397208        1.2400792382
C                -2.5258504708        2.2770774290        0.4018016691
C                -3.4931519503        3.1592042871        0.8458048801
C                -3.9873934977        3.0578555780        2.1346350240
C                -3.5078627414        2.0706212924        2.9786955899
C                -2.5449427796        1.1837391394        2.5363338045
C                -1.3332192598       -1.1129705766        0.5419345373
C                -1.5630695314       -1.4088116114       -0.9441037862
C                -1.1372135730       -0.5762707726       -1.9696978723
C                -1.3378695447       -0.9243965533       -3.2955157790
C                -1.9695792998       -2.1096457203       -3.6218934824
C                -2.4111254317       -2.9417518308       -2.6070282010
C                -2.2138096390       -2.5931974009       -1.2841202114
C                -2.6106111049       -1.4745953580        1.2809553462
C                -3.8126984809       -0.9834843540        0.7755468360
C                -5.0094944446       -1.2463388307        1.4124709715
C                -5.0283094697       -2.0127956321        2.5655919362
C                -3.8406803426       -2.5112734948        3.0680752828
C                -2.6381537112       -2.2437732076        2.4340517863
C                -0.0796553504       -1.9374019968        0.9803916305
N                -0.3501804570       -3.3562956368        0.8808530454
N                 0.2381353443       -1.6732656474        2.3832351410
H                 7.2144504499       -0.7125367663       -3.3832317346
H                 7.1264425884        0.6718157243       -2.2882057468
H                 6.2476273356        0.7046935663       -3.8103535089
H                 6.0246237664       -2.5540062603       -2.6758963250
H                 4.1030122927       -3.6154024003       -1.5698110966
H                 1.9787085385       -3.3657811372       -0.2876719483
H                 4.4708560205        2.1029432009       -2.8502213008
H                 5.4197749319        2.0933862301       -1.3675983981
H                 3.6518579932        2.1929055047       -1.2791914404
H                 0.1495432644        2.3040166249        2.7258068518
H                 0.7112553005        4.6814310699        2.9860925463
H                 1.4544584388        5.9996544023        1.0363645557
H                 1.6286072967        4.9226101032       -1.1765373222
H                 1.0578597159        2.5422015385       -1.4384151796
H                -2.1425242734        2.3554773053       -0.6051490122
H                -3.8610140600        3.9291787489        0.1833730080
H                -4.7426590599        3.7477131246        2.4813831928
H                -3.8859595297        1.9896512370        3.9872729718
H                -2.1715484510        0.4171110955        3.1994511293
H                -0.6478521778        0.3599019508       -1.7517816033
H                -0.9961174029       -0.2595504985       -4.0755664214
H                -2.1226564422       -2.3800211720       -4.6562455724
H                -2.9153932523       -3.8670193521       -2.8454208415
H                -2.5719938716       -3.2425077322       -0.4999690525
H                -3.8117835390       -0.3885815325       -0.1269418360
H                -5.9296823638       -0.8511430423        1.0071366746
H                -5.9634663370       -2.2200831583        3.0654825117
H                -3.8451615002       -3.1137759728        3.9651844737
H                -1.7183843632       -2.6310832370        2.8362592925
H                -0.3288269732       -3.6625246161       -0.0836686435
H                 0.3294846637       -3.8815358477        1.4167964364
H                 0.1937566803       -0.6795499559        2.5763266235
H                 1.1768788204       -1.9968624438        2.5942375612



