%chk=calculation/no_transfer_pubchem_sampling_6_b3lyp/146406112_rwf.chk
%rwf=calculation/no_transfer_pubchem_sampling_6_b3lyp/146406112_rwf.rwf
%nprocshared=14
%mem=3GB
#p b3lyp/6-31g(d) 6D 10F nosymm GFInput td=(50-50,nstate=2) SCF=XQC 

Gaussian input prepared by ASE

0 1
C                 6.6738184442        0.0594395692       -2.9522084468
C                 5.4574569095       -0.5390019264       -2.2842605950
C                 5.3356064936       -1.9494189375       -2.2030813163
C                 4.2507904898       -2.5484224926       -1.6037623923
C                 3.2229124004       -1.7506423716       -1.0542115144
C                 2.0808438594       -2.2929798114       -0.4081101535
C                 1.1053781384       -1.4746229310        0.1005840132
C                 1.2855688496       -0.0598446466       -0.0453830473
N                 2.3464616120        0.4766355903       -0.6191218458
C                 3.3233787783       -0.3262615736       -1.1306813203
C                 4.4625114629        0.2787785444       -1.7513533875
C                 4.5740477531        1.7813954529       -1.8227597601
C                 0.2307139996        0.8481808995        0.4735336001
C                 0.6031327406        2.2864402439        0.6734457645
C                 0.7199724388        2.8139696655        1.9661477095
C                 1.0747175823        4.1486089572        2.1668456127
C                 1.3178733820        4.9802488946        1.0739152340
C                 1.2079009845        4.4656925222       -0.2197150480
C                 0.8604829600        3.1298488050       -0.4176310753
C                -1.0168749892        0.3737861005        0.7431150749
C                -2.0868828684        1.3333104299        1.1713638433
C                -2.6442844538        2.2272365687        0.2452647063
C                -3.6265981880        3.1395907368        0.6324031596
C                -4.0617798407        3.1816402861        1.9568949890
C                -3.5113239462        2.3005734911        2.8896541511
C                -2.5384070780        1.3822525145        2.4992512755
C                -1.3677028002       -1.1352488896        0.5332643181
C                -1.6457666155       -1.4334297146       -0.9788761343
C                -1.3090941629       -0.5568664424       -2.0181118362
C                -1.5572568608       -0.8832721141       -3.3546457877
C                -2.1457554891       -2.1005756047       -3.6870013134
C                -2.4934890701       -2.9851980649       -2.6641670136
C                -2.2556427124       -2.6526875636       -1.3316007665
C                -2.6482568315       -1.5233923958        1.3256937636
C                -3.8943500800       -1.1099728284        0.8204405598
C                -5.0850895508       -1.3994848924        1.4821271759
C                -5.0665033352       -2.1234810609        2.6750139485
C                -3.8422778802       -2.5468450769        3.1867294802
C                -2.6470986928       -2.2528999897        2.5229596416
C                -0.0756515554       -1.9778788946        0.9424846689
N                -0.3361225886       -3.4087236778        0.7998700850
N                 0.2611144687       -1.7731141530        2.3720012283
H                 7.3447743484       -0.7204343928       -3.3249256872
H                 7.2466463669        0.6907583758       -2.2606495643
H                 6.3972775047        0.6972169471       -3.8015242171
H                 6.1251896203       -2.5656778312       -2.6266356840
H                 4.1744499839       -3.6318952402       -1.5477947186
H                 1.9968354925       -3.3736966094       -0.3191466239
H                 4.5964729201        2.1289245667       -2.8645869117
H                 5.5034290662        2.1323965578       -1.3557402860
H                 3.7319587908        2.2545344808       -1.3178395590
H                 0.5263084971        2.1748662323        2.8232176771
H                 1.1579435226        4.5369056827        3.1786358048
H                 1.5912500706        6.0208687832        1.2276443708
H                 1.3953691730        5.1053293304       -1.0784699203
H                 0.7913567194        2.7336953961       -1.4257199935
H                -2.3063427000        2.2061528776       -0.7863658003
H                -4.0466283221        3.8209463023       -0.1029560308
H                -4.8239181603        3.8943792105        2.2606841201
H                -3.8432412440        2.3232290018        3.9243040817
H                -2.1337787033        0.6880510531        3.2297896193
H                -0.8470167440        0.3970112256       -1.7960602243
H                -1.2857758650       -0.1755962749       -4.1338486122
H                -2.3389430681       -2.3549528533       -4.7258082685
H                -2.9642882160       -3.9362089000       -2.9005907033
H                -2.5520509669       -3.3410355962       -0.5489901164
H                -3.9373686771       -0.5488705573       -0.1069089495
H                -6.0272618292       -1.0579303836        1.0610985743
H                -5.9931596515       -2.3556807471        3.1939702613
H                -3.8061376376       -3.1183161893        4.1112565758
H                -1.7092008148       -2.5919332006        2.9394924427
H                -0.1861549774       -3.7218515525       -0.1545722201
H                 0.2714945703       -3.9380240596        1.4191301871
H                 0.1619674473       -0.7872269186        2.6045016785
H                 1.2500663257       -1.9892999353        2.4990914482



