%chk=calculation/no_transfer_pubchem_sampling_6_b3lyp/148951856_rwf.chk
%rwf=calculation/no_transfer_pubchem_sampling_6_b3lyp/148951856_rwf.rwf
%nprocshared=14
%mem=3GB
#p b3lyp/6-31g(d) 6D 10F nosymm GFInput td=(50-50,nstate=2) SCF=XQC 

Gaussian input prepared by ASE

0 1
C                -2.9905718652        3.0171209483        0.3129321295
C                -2.2123124086        1.7424513320        0.2499986752
N                -0.8046709617        1.7880880983        0.2944329493
C                -0.3537554118        0.4992238160        0.2111583624
C                -1.4199018065       -0.3725070067        0.1582765814
C                -2.6187749250        0.4225278931        0.1861625357
C                -4.0262076484       -0.0959661174        0.1613111790
C                -0.8534640742       -1.6950516811        0.0316628477
C                -1.3946346244       -2.9827682282       -0.0516774418
C                -0.5394634054       -4.0771164322       -0.1654564846
C                 0.8503208355       -3.8990115671       -0.1967409460
C                 1.4219467704       -2.6268087465       -0.1195932021
C                 0.5660398758       -1.5334134258       -0.0066369516
N                 0.8770754234       -0.1452871963        0.1184718528
C                 2.1353767032        0.4542711365        0.2413030991
C                 2.2717872643        1.6850524165        0.9158207139
C                 3.5304490937        2.2691858771        0.9749540511
C                 4.6189152083        1.6180201499        0.3900612880
C                 4.3819513797        0.3855202708       -0.2142406702
N                 3.1770633106       -0.1872952324       -0.3021424289
H                -4.0609362841        2.8138304950        0.2257470778
H                -2.7249117869        3.7061630539       -0.5017208873
H                -2.8351017544        3.5549608886        1.2587843782
H                -0.2624075533        2.6189373002        0.1140549795
H                -4.2053843229       -0.7186340658       -0.7248108098
H                -4.7615139619        0.7146795056        0.1464523854
H                -4.2425754868       -0.7193355977        1.0389192158
H                -2.4716364544       -3.1242238376       -0.0243627175
H                -0.9551874993       -5.0790653124       -0.2328507586
H                 1.5019389147       -4.7635585305       -0.2900832027
H                 2.4929960687       -2.4858418475       -0.1663527997
H                 1.4260728918        2.1352056168        1.4229715637
H                 3.6631436079        3.2157121115        1.4923365151
H                 5.6177197393        2.0410169805        0.4158357750
H                 5.2006151477       -0.1760860651       -0.6614348547



