%chk=calculation/no_transfer_pubchem_sampling_6_b3lyp/153479195_rwf.chk
%rwf=calculation/no_transfer_pubchem_sampling_6_b3lyp/153479195_rwf.rwf
%nprocshared=14
%mem=3GB
#p b3lyp/6-31g(d) 6D 10F nosymm GFInput td=(50-50,nstate=2) SCF=XQC 

Gaussian input prepared by ASE

0 1
C                -9.3682384217        1.5345921456       -2.1566835941
C                -9.1985546053        2.9537919970       -1.5980066185
C                -9.2769610229        2.9622342341       -0.0652846914
C                -7.9202624428        3.6593070843       -2.1337588573
C                -6.5895721960        3.0591125948       -1.7248399890
C                -5.9827945558        2.0431078366       -2.4779520770
C                -4.7420342887        1.5313047926       -2.1091834141
C                -4.0834261782        2.0076009445       -0.9716700099
N                -2.7480341985        1.5460734577       -0.7150820449
C                -2.2609455829        0.3520647237       -0.1832559984
C                -3.0261750998       -0.7484077176        0.4163114574
C                -4.4155574982       -0.6775051815        0.6263591519
C                -5.1364135668       -1.7162508831        1.2078528801
C                -6.6602219011       -1.5856590065        1.3983500968
C                -6.9826306512       -0.3156606969        2.2207853900
C                -7.3391078436       -1.4834791896        0.0118861948
C                -7.2662256031       -2.7934398943        2.1389490103
C                -4.4182551695       -2.8630003794        1.5808954606
C                -3.0404457666       -3.0104028633        1.4083611718
C                -2.3092493047       -4.2993220838        1.8476824103
C                -1.6251239191       -4.9669241069        0.6286910105
C                -3.2784805298       -5.3368663522        2.4514100219
C                -1.2537357042       -3.9716831901        2.9332727094
C                -2.3311270221       -1.9311829406        0.8219886356
O                -1.0008993725       -2.0590340233        0.6649644568
N                -0.9347273410        0.3147761722       -0.2608964361
C                -0.5115864864        1.4858280445       -0.8517881225
C                 0.7894274975        1.9251784380       -1.1854023689
C                 2.0099857808        1.1324724411       -0.8942339598
C                 2.1385868624        0.4034820204        0.2985360243
C                 3.2984453050       -0.3311221891        0.5812798572
C                 3.4176545071       -1.1061126897        1.8447407228
C                 2.9234416753       -0.5931919184        3.0556879966
C                 3.0367397340       -1.3185473806        4.2408614323
C                 3.6486505564       -2.5732813211        4.2422729212
C                 4.1440810397       -3.0963614852        3.0466184175
C                 4.0288866935       -2.3710708591        1.8615700312
C                 4.3454432595       -0.3206632336       -0.3510531712
C                 4.2482775364        0.4023579471       -1.5471636691
C                 5.3563903353        0.4275938591       -2.5426641550
C                 6.6774937387        0.1123289473       -2.1904099059
C                 7.6953365610        0.1390067128       -3.1527299103
C                 9.0979440847       -0.1938224988       -2.8032752060
C                 9.3942870798       -1.1957574239       -1.8638620227
C                10.7108163881       -1.5080660746       -1.5381386042
C                11.7878364911       -0.8331547664       -2.1322304799
C                13.2306200855       -1.1676528532       -1.7801994605
C                13.5362186091       -0.8950952311       -0.2950282246
C                13.5925076271       -2.6155186189       -2.1628232889
C                11.4898089906        0.1655949679       -3.0673848027
C                10.1737076466        0.4805054211       -3.4003711669
C                 7.3284675217        0.5047074666       -4.4564277673
C                 5.9981663828        0.8264740466       -4.7134579518
N                 5.0280363589        0.7931376589       -3.7976098762
C                 3.0707321248        1.1149369936       -1.8097109345
C                 0.8676018246        3.1695909479       -1.8237474590
C                -0.2683395558        3.9408515947       -2.1210456326
C                -1.5504419944        3.5093126908       -1.7922694020
C                -1.6398194117        2.2738138029       -1.1527240017
C                -4.6628104163        3.0249558374       -0.1855383639
C                -4.0039492650        3.6065454113        1.0176845354
C                -3.9012727521        5.0014783551        1.1475068753
C                -3.3177334718        5.5739380480        2.2769725233
C                -2.8296214755        4.7609242466        3.3008282210
C                -2.9308593711        3.3734331412        3.1862043695
C                -3.5111857663        2.7994636448        2.0556752825
C                -5.9115971654        3.5250400038       -0.5926215687
H               -10.3238162217        1.1046316891       -1.8344537190
H                -9.3552634742        1.5306486510       -3.2536642711
H                -8.5726598212        0.8668664142       -1.8076038484
H               -10.0369223371        3.5577712412       -1.9752157901
H               -10.2311393164        2.5432165013        0.2748188308
H                -9.1990818213        3.9802279687        0.3358920977
H                -8.4745204956        2.3638340527        0.3812192777
H                -7.9776375741        3.6778994113       -3.2299949114
H                -7.9489592904        4.7057326233       -1.8039511982
H                -6.4693855215        1.6695565618       -3.3748561515
H                -4.2579550297        0.7687542605       -2.7118807670
H                -4.9407465269        0.2174832878        0.3235816364
H                -6.5178404276       -0.3630542872        3.2123429553
H                -6.6248612714        0.5951976523        1.7288952292
H                -8.0663726162       -0.2136757558        2.3584812075
H                -8.4253815617       -1.3707035924        0.1197229698
H                -7.1480705474       -2.3840290258       -0.5832009211
H                -6.9656962123       -0.6246087419       -0.5561881724
H                -6.8309371792       -2.9202508472        3.1368607951
H                -8.3449096437       -2.6451665024        2.2644141526
H                -7.1262686039       -3.7277270070        1.5836258073
H                -4.9610340579       -3.6808889863        2.0322998928
H                -1.1141882879       -5.8851499652        0.9449259316
H                -0.8903858258       -4.3056061224        0.1677400051
H                -2.3691486970       -5.2413383685       -0.1291150740
H                -3.7808179102       -4.9620276864        3.3509399030
H                -2.7118533070       -6.2288198836        2.7413256580
H                -4.0453358094       -5.6547158491        1.7351849779
H                -0.5017424398       -3.2714229601        2.5675970272
H                -1.7335990509       -3.5354909395        3.8180000550
H                -0.7447924675       -4.8916700443        3.2476116551
H                -0.6476908597       -1.2053415640        0.2726594793
H                 1.3161720501        0.3910576125        1.0046665683
H                 2.4664336044        0.3923444960        3.0699072128
H                 2.6521160097       -0.8986443362        5.1667342049
H                 3.7362877568       -3.1391205112        5.1658960539
H                 4.6118645349       -4.0774823235        3.0331370479
H                 4.3902881531       -2.8009796285        0.9313852429
H                 5.2424927422       -0.8903098005       -0.1311622518
H                 6.9270461783       -0.1097926749       -1.1589619774
H                 8.5840130790       -1.7543080440       -1.4034631092
H                10.8999274327       -2.2965184285       -0.8138469096
H                13.8697761731       -0.5010252148       -2.3751685321
H                13.3148913053        0.1440621544       -0.0285458035
H                14.5938126746       -1.0862405621       -0.0777747234
H                12.9402051902       -1.5419787294        0.3596576795
H                12.9994469030       -3.3389030555       -1.5907289562
H                14.6505567425       -2.8157220448       -1.9562268647
H                13.4107248092       -2.8021170182       -3.2267918413
H                12.3029254327        0.7130694276       -3.5392481375
H                 9.9791046711        1.2781856594       -4.1119941685
H                 8.0593658484        0.5213262835       -5.2587717652
H                 5.6933580119        1.1195900540       -5.7174545277
H                 2.9892940152        1.6384772548       -2.7550798776
H                 1.8471726195        3.5618662446       -2.0793015394
H                -0.1393317701        4.9011126062       -2.6123346399
H                -2.4298684779        4.1019171059       -2.0199347817
H                -4.2659099089        5.6391633898        0.3465446066
H                -3.2397680992        6.6552067872        2.3532723247
H                -2.3735315088        5.2050623789        4.1814340293
H                -2.5609642984        2.7318861808        3.9814169066
H                -3.6010674316        1.7199889844        1.9913836449
H                -6.3649946171        4.3100149457        0.0066841032



