%chk=./calculation/no_transfer_pubchem_sampling_6_b3lyp/153479195.chk
%nprocshared=7
%mem=6GB
#p b3lyp/6-31g(d) opt SCF=XQC 

Gaussian input prepared by ASE

0 1
C                -9.4105027850        1.2461494412       -1.6867604962
C                -9.1695006770        2.6699251958       -1.1945987201
C                -8.9108631604        2.6806944423        0.3091885772
C                -8.0238485257        3.3560073986       -1.9676859449
C                -6.6596456428        2.8108567852       -1.6589500063
C                -6.1615420737        1.6922660157       -2.3196307029
C                -4.8943821033        1.2146709515       -2.0435421279
C                -4.1012828761        1.8450607634       -1.0932148573
N                -2.7662190846        1.4268173425       -0.8995486855
C                -2.2366588706        0.2887678919       -0.3380075104
C                -2.9638483770       -0.7525169840        0.3647220254
C                -4.2972350973       -0.5775008994        0.7278888956
C                -4.9921578202       -1.5382124405        1.4361568551
C                -6.4471541061       -1.2790128041        1.7974211609
C                -6.5413309202        0.0091662324        2.6280771699
C                -7.2530186432       -1.1171403834        0.5013741349
C                -7.0692231151       -2.4163103053        2.6112440119
C                -4.3141842228       -2.7030206751        1.7808326548
C                -2.9849079145       -2.9279104539        1.4600332696
C                -2.2687217325       -4.2065290718        1.8818643792
C                -1.7587943563       -4.9398652115        0.6340047299
C                -3.1802902541       -5.1703731192        2.6494104665
C                -1.0894622423       -3.8484730435        2.7976288248
C                -2.2895233588       -1.9351651402        0.7456294237
O                -0.9978907305       -2.1258130404        0.4371518202
N                -0.9243689317        0.2728311438       -0.4357088044
C                -0.5434316918        1.4279894349       -1.0516725385
C                 0.7333265933        1.9004905732       -1.3880788878
C                 1.9346136106        1.1089364420       -1.1048464617
C                 1.9440901128        0.2152546043       -0.0366619622
C                 3.0331169600       -0.6136156852        0.2018868590
C                 2.9607582160       -1.6174774953        1.2756662872
C                 2.3708282258       -1.3130642719        2.5000509699
C                 2.2703815677       -2.2711633341        3.4910866703
C                 2.7537327854       -3.5506381890        3.2749637123
C                 3.3429330055       -3.8644208512        2.0621596936
C                 3.4475925888       -2.9060384073        1.0713032416
C                 4.1581540612       -0.5034985579       -0.6080062550
C                 4.1880822705        0.4150306164       -1.6529738160
C                 5.3674354843        0.5618926427       -2.5188181575
C                 6.6524035431        0.2487578954       -2.0779952116
C                 7.7336731111        0.4018140104       -2.9400837866
C                 9.0994746357        0.0766132304       -2.5087696610
C                 9.3501780668       -1.0455075371       -1.7228353301
C                10.6351281629       -1.3551534923       -1.3246864851
C                11.7104969509       -0.5523889800       -1.6883654968
C                13.1166345111       -0.8824399642       -1.2539027203
C                13.2323393000       -0.8674661971        0.2718690759
C                13.5558166527       -2.2353515709       -1.8183266971
C                11.4569598230        0.5689986059       -2.4681029399
C                10.1745420194        0.8795275975       -2.8778900400
C                 7.4737195231        0.8755613388       -4.2260070876
C                 6.1661478968        1.1771807067       -4.5647890981
N                 5.1430974965        1.0306807388       -3.7466210940
C                 3.0660339435        1.1978820575       -1.9088770973
C                 0.7729479828        3.1407943500       -2.0110785669
C                -0.3779938163        3.8688018334       -2.3054894592
C                -1.6388221320        3.3999672709       -1.9936287347
C                -1.7006293979        2.1742309117       -1.3529119669
C                -4.5773373568        2.9743475672       -0.4181992701
C                -3.7304588621        3.6762277901        0.5627008496
C                -3.5412103083        5.0507226362        0.4540589975
C                -2.7158777687        5.7168631679        1.3400834816
C                -2.0749084222        5.0198982843        2.3503286639
C                -2.2729213284        3.6556240611        2.4770702803
C                -3.0951461911        2.9853776188        1.5905288064
C                -5.8542983770        3.4347501837       -0.7153763962
H               -10.2635984274        0.8111131854       -1.1706601083
H                -9.6199135096        1.2375480329       -2.7544604364
H                -8.5437276246        0.6199353611       -1.4959680317
H               -10.0760429002        3.2543373195       -1.3925627445
H                -9.7630951560        2.2623027374        0.8399844003
H                -8.7521272224        3.6955209607        0.6670457587
H                -8.0325792805        2.0875110913        0.5512860999
H                -8.2208513594        3.2514737786       -3.0370785302
H                -8.0396380717        4.4208253764       -1.7247068734
H                -6.7578764543        1.2043524212       -3.0756273617
H                -4.5049324145        0.3529007806       -2.5655714054
H                -4.7892681747        0.3418333406        0.4594436799
H                -5.9436309613       -0.0826704881        3.5325250362
H                -6.1833871709        0.8714919240        2.0711846141
H                -7.5742033892        0.1971004093        2.9143712522
H                -8.2974202348       -0.9138545946        0.7289533926
H                -7.1982531795       -2.0278470148       -0.0916161345
H                -6.8639834289       -0.2982978911       -0.0988855468
H                -6.5393462266       -2.5599319690        3.5499448378
H                -8.1041488121       -2.1721161397        2.8430063343
H                -7.0626796599       -3.3481598830        2.0508181192
H                -4.8426628122       -3.4591065133        2.3305346071
H                -1.2663042238       -5.8659327571        0.9226806286
H                -1.0469589903       -4.3265711814        0.0925559618
H                -2.5899541797       -5.1802872671       -0.0265321642
H                -3.5452536848       -4.7227061110        3.5712313066
H                -2.6118194652       -6.0596761691        2.9141973157
H                -4.0261527283       -5.4851132223        2.0420395054
H                -0.3635465757       -3.2347706054        2.2750977669
H                -1.4441924290       -3.3045426372        3.6711927399
H                -0.5907539393       -4.7551031208        3.1333189824
H                -0.6521085656       -1.2975425209        0.0147209854
H                 1.0769713322        0.1423038521        0.5976301306
H                 2.0017702963       -0.3137447041        2.6791626344
H                 1.8098557439       -2.0210893375        4.4359121010
H                 2.6688695686       -4.3003349817        4.0478646891
H                 3.7171026167       -4.8626913197        1.8854872058
H                 3.8870459705       -3.1638264962        0.1184687393
H                 5.0061198068       -1.1459392274       -0.4232258770
H                 6.8182849610       -0.0741083580       -1.0618497878
H                 8.5321017979       -1.6930740343       -1.4417308742
H                10.7996223415       -2.2365372379       -0.7225253800
H                13.7865402944       -0.1128174192       -1.6538983870
H                12.9160003011        0.0958052662        0.6664330507
H                14.2629002306       -1.0434977576        0.5724751800
H                12.6094787118       -1.6404435212        0.7150352051
H                12.9387995721       -3.0383220563       -1.4228644173
H                14.5913562273       -2.4356643063       -1.5519560358
H                13.4700398430       -2.2394303784       -2.9028892634
H                12.2769165169        1.2107940552       -2.7594624104
H                10.0010204750        1.7657790523       -3.4711725299
H                 8.2708277684        0.9924915856       -4.9438121999
H                 5.9207851651        1.5557273020       -5.5496768688
H                 3.0929624894        1.8574544961       -2.7613996086
H                 1.7308637113        3.5672500832       -2.2671553027
H                -0.2782211864        4.8272435552       -2.7930331397
H                -2.5298808145        3.9598175538       -2.2325588607
H                -4.0293874386        5.5927338369       -0.3435695552
H                -2.5685419370        6.7822141806        1.2393783939
H                -1.4248337172        5.5393487626        3.0385818034
H                -1.7833221972        3.1082173909        3.2689788702
H                -3.2548885204        1.9233869729        1.7097975625
H                -6.2217935053        4.3055778881       -0.1916139701



