%chk=./calculation/no_transfer_pubchem_sampling_6_b3lyp/154692953.chk
%nprocshared=7
%mem=6GB
#p b3lyp/6-31g(d) opt SCF=XQC 

Gaussian input prepared by ASE

0 1
B                 6.2399433558       -1.3757674548       -0.5532345701
N                 5.3581397636       -2.1859406909        0.1900102475
C                 5.6392034581       -3.3908833340        0.7977748729
C                 4.5350120649       -3.8374073496        1.4627895347
C                 3.4996171664       -2.9070123137        1.2488470765
C                 4.0080759388       -1.8921710303        0.4577952653
C                 3.4097454651       -0.7311361514       -0.0943573737
C                 1.9724799464       -0.4929116964        0.0121291298
C                 1.0586304150       -1.5325691705       -0.1888877754
C                -0.3072927333       -1.3248621009       -0.0968285844
C                -0.7671235223       -0.0590679955        0.1967981400
C                 0.1328735250        0.9992038116        0.3911838791
C                 1.4944176722        0.7884527363        0.3008645402
C                -0.6302177088        2.2041506057        0.6775027196
C                -0.2252435228        3.5027625212        0.9371960940
C                -1.1934909695        4.4646633118        1.1772091352
C                -2.5411637285        4.1388014664        1.1585043967
C                -2.9548184777        2.8391570489        0.8977463087
C                -1.9945796027        1.8810892757        0.6588055506
C                -2.1907009138        0.4153184385        0.3531181880
C                -3.0481938439        0.1680805181       -0.8639472067
C                -2.8437132089        0.6010932906       -2.1554880300
C                -3.7745515475        0.2518422213       -3.1246625367
C                -4.8840031499       -0.5144503266       -2.8005648664
C                -5.0922689187       -0.9521896561       -1.5024155527
C                -4.1676471117       -0.6079405243       -0.5303321772
C                -4.1106670121       -0.9115686875        0.8908828051
C                -4.9633889047       -1.6378227720        1.7056346400
C                -4.6490041955       -1.7646897077        3.0492392892
C                -3.5056124900       -1.1791617822        3.5717368631
C                -2.6463726157       -0.4493907960        2.7612373315
C                -2.9565429192       -0.3208065104        1.4253203461
C                 4.2163237284        0.1772428834       -0.7776348221
C                 3.9446083143        1.2074919406       -1.6608223772
C                 5.1674186204        1.7606499149       -2.0969508431
C                 6.1972821661        1.1027798638       -1.5137922839
N                 5.6763404040        0.0686644754       -0.6530052310
H                 6.6245741776       -3.8088454336        0.7318153235
H                 4.4639797942       -4.7394306658        2.0393745374
H                 2.4965934911       -2.9787624635        1.6196739604
H                 1.4313143950       -2.5111946695       -0.4504240145
H                -0.9989888257       -2.1388838987       -0.2603205039
H                 2.1883321318        1.5989993169        0.4688914445
H                 0.8233943358        3.7614943986        0.9519323909
H                -0.8953892749        5.4829549741        1.3816423848
H                -3.2782111163        4.9052385030        1.3485197814
H                -4.0047510412        2.5845538935        0.8821677584
H                -1.9789889351        1.1979832707       -2.4070425604
H                -3.6328749393        0.5811113504       -4.1436424275
H                -5.5950606865       -0.7734801734       -3.5717221095
H                -5.9576698723       -1.5491789077       -1.2550965391
H                -5.8547547198       -2.0962279399        1.3033677457
H                -5.3028771052       -2.3276447508        3.6995634260
H                -3.2807849619       -1.2922611464        4.6222213727
H                -1.7552124868        0.0071367584        3.1672150696
H                 2.9679503565        1.4869552286       -2.0001918810
H                 5.2639072586        2.5713678723       -2.7938134300
H                 7.2567321678        1.2192411078       -1.6139874514
H                 5.9152729494        0.3151801015        0.3134745987



