%chk=./calculation/no_transfer_pubchem_sampling_6_b3lyp/154714716.chk
%nprocshared=7
%mem=6GB
#p b3lyp/6-31g(d) opt SCF=XQC 

Gaussian input prepared by ASE

0 1
C                -2.8428361411        1.2683631312       -1.5040316093
C                -2.9404227039        0.4307009125       -0.2765414975
C                -3.8356308959       -0.6362274846       -0.2175487913
C                -3.9173333485       -1.4554629947        0.8928880818
C                -3.1014531154       -1.2282007719        1.9901955965
C                -2.2102200235       -0.1723660075        1.9556179057
C                -2.1382746915        0.6398494997        0.8380735062
S                -0.8967664810        1.9271127966        0.9853606133
O                -0.8756477781        2.3762853554        2.3553653922
O                -0.9911339502        2.9422272927       -0.0261617280
C                 0.6795971919        1.0683448891        0.7522396386
C                 1.6728911959        1.3356344226        1.6144327251
O                 2.9018705431        0.8340195440        1.5432356434
C                 3.1920494165        0.0015642804        0.5039219764
C                 4.4930676614       -0.4953764011        0.4232334782
C                 4.8369512170       -1.3403227915       -0.6095510639
C                 3.8965777978       -1.7022853165       -1.5710315243
C                 2.6117922366       -1.2154510708       -1.4935530850
C                 2.2379823266       -0.3564957042       -0.4563548946
C                 0.8612432892        0.1674268642       -0.3727401575
O                -0.0229745398       -0.1340307709       -1.1539273674
H                -1.9186750716        1.0150235641       -2.0228876199
H                -2.7922785525        2.3242190554       -1.2557199500
H                -3.6841865286        1.0812510565       -2.1667016950
H                -4.4758390478       -0.8244169294       -1.0670630024
H                -4.6207772295       -2.2749878633        0.9043943362
H                -3.1608009175       -1.8637885424        2.8602523080
H                -1.5703705470        0.0541521330        2.7943172526
H                 1.5223390725        1.9992238124        2.4558691635
H                 5.2071499404       -0.2025218045        1.1763497709
H                 5.8442206466       -1.7227702853       -0.6721661478
H                 4.1785375789       -2.3641850298       -2.3750978889
H                 1.8593524493       -1.4765078414       -2.2219753658



