%chk=./calculation/no_transfer_pubchem_sampling_6_b3lyp/154835324.chk
%nprocshared=7
%mem=6GB
#p b3lyp/6-31g(d) opt SCF=XQC 

Gaussian input prepared by ASE

0 1
O                -4.9263812069       -1.8519344028       -3.4509699973
C                -4.9612404416       -1.1979242810       -2.4294107004
C                -6.0982891296       -0.2841735300       -2.1443115732
C                -7.3069287244       -0.5231904586       -2.8025229726
C                -8.4097554013        0.2739102963       -2.5593190307
C                -8.3268186664        1.3255293661       -1.6585818709
C                -7.1287046248        1.5835389080       -1.0106343716
C                -6.0326909740        0.7811345158       -1.2538941234
S                -4.4684183727        1.1860321229       -0.4887754825
O                -4.6856855992        1.6909725436        0.8383183013
O                -3.7202839536        2.0097771735       -1.4009129579
C                -3.6502653149       -0.4025058036       -0.4103786515
C                -2.6836909293       -0.6033555871        0.5511505853
C                -1.9539435799       -1.7880184724        0.5631202645
C                -0.9644310022       -2.0845329827        1.6531640820
O                -1.1032494906       -3.0630088821        2.3656132061
N                 0.0533993422       -1.2164770615        1.8015148963
C                 0.3545304008       -0.1025049063        0.9240606871
C                 1.8658578661        0.0816749809        0.8485292229
N                 2.4065806895        0.4712678174        2.1427512297
C                 3.8423174271        0.2409505396        2.2080800438
C                 4.5413533959        1.1087039640        1.1906007995
C                 4.3872834627        2.4669733104        1.3276836805
C                 4.9740638146        3.3691075189        0.4339687584
C                 5.7268758651        2.9031117892       -0.6058776941
C                 5.9128965708        1.5184379315       -0.7900432730
C                 6.6876119980        1.0345309763       -1.8660779106
C                 6.8692119937       -0.3043039992       -2.0585733159
C                 6.2784258867       -1.2188709030       -1.1750151882
C                 5.5254352862       -0.7817516359       -0.1219414919
C                 5.3123430724        0.5954901587        0.1139837248
C                 1.6533780015       -0.1068581563        3.2468618969
C                 0.9977335883       -1.4360581467        2.8844326676
C                -2.2236257761       -2.7622141841       -0.3946219463
C                -3.1868654286       -2.5478833573       -1.3605734591
C                -3.9196327250       -1.3582412856       -1.3827726654
H                -7.3546777809       -1.3452917032       -3.5009778956
H                -9.3378056413        0.0764086171       -3.0741037301
H                -9.1887162227        1.9459152581       -1.4662754030
H                -7.0236190059        2.3970880006       -0.3101478000
H                -2.5292423846        0.1673573404        1.2899817389
H                -0.0424942635       -0.3021414622       -0.0733435775
H                -0.0991296910        0.8223290251        1.2983177047
H                 2.1036257005        0.8679064060        0.1262030967
H                 2.3195430667       -0.8559699602        0.4820329596
H                 4.0905976887       -0.8229939394        2.0772229657
H                 4.1785730607        0.5422545976        3.2048322320
H                 3.7881968639        2.8403171483        2.1446164803
H                 4.8282637661        4.4296398359        0.5762835089
H                 6.1903148528        3.5851933279       -1.3041296022
H                 7.1362021854        1.7524902456       -2.5379739719
H                 7.4634074061       -0.6671011811       -2.8841816849
H                 6.4245235210       -2.2777867572       -1.3320844756
H                 5.0892351507       -1.5143975980        0.5397180279
H                 2.3123806695       -0.2464032032        4.1050984467
H                 0.8724942848        0.6048244609        3.5392796066
H                 0.4511598493       -1.8565564555        3.7316725447
H                 1.7569834855       -2.1676049028        2.5804686281
H                -1.6707083220       -3.6890708483       -0.3696955666
H                -3.3975065603       -3.2937421293       -2.1124286039



