%chk=calculation/no_transfer_pubchem_sampling_6_b3lyp/154835324_rwf.chk
%rwf=calculation/no_transfer_pubchem_sampling_6_b3lyp/154835324_rwf.rwf
%nprocshared=14
%mem=3GB
#p b3lyp/6-31g(d) 6D 10F nosymm GFInput td=(50-50,nstate=2) SCF=XQC 

Gaussian input prepared by ASE

0 1
O                -6.0172100893       -2.3838491202       -2.8269483076
C                -5.7288231769       -1.4790620012       -2.0547686138
C                -6.6604865776       -0.3216412357       -1.8656771840
C                -7.9582601820       -0.4327905674       -2.3848016663
C                -8.8951302318        0.5755576996       -2.1769517492
C                -8.5542225562        1.7102776106       -1.4355145551
C                -7.2675780150        1.8451027091       -0.9142171763
C                -6.3348408125        0.8340679656       -1.1375472248
S                -4.6551863557        1.1423173687       -0.5972163884
O                -4.6867255960        1.7723422851        0.7318333563
O                -3.9343876906        1.8129729140       -1.6922633520
C                -3.9946475278       -0.5153891726       -0.4390880853
C                -2.8832499822       -0.6709489484        0.3861317267
C                -2.2332520977       -1.9079637160        0.4454468538
C                -1.0900387157       -2.1933093565        1.3893748805
O                -1.0686702671       -3.2643515504        1.9948113645
N                -0.1256178643       -1.2410331068        1.5765726224
C                 0.1693405315       -0.1212399921        0.6674002624
C                 1.6742190427       -0.0320041944        0.4178230572
N                 2.4038627394        0.2558072808        1.6571726515
C                 3.8298198389       -0.0343492800        1.5352855071
C                 4.5996829119        1.0138940879        0.7384464921
C                 4.0752171260        2.2792049467        0.5705481518
C                 4.7720593675        3.2826683758       -0.1425662090
C                 6.0054662251        3.0155724750       -0.6851141438
C                 6.5984283944        1.7345485108       -0.5265151888
C                 7.8804047919        1.4467487677       -1.0666374242
C                 8.4630788024        0.2116409828       -0.8989597551
C                 7.7806839929       -0.7940983110       -0.1765489971
C                 6.5335892013       -0.5493812913        0.3561805061
C                 5.8945533597        0.7131592679        0.1984700115
C                 1.7388949976       -0.2926951183        2.8504877648
C                 0.9091669660       -1.5490225248        2.5776025470
C                -2.7304327722       -2.9780904357       -0.3142122382
C                -3.8364773038       -2.8105052515       -1.1371389873
C                -4.4919110005       -1.5721702118       -1.2155195381
H                -8.2072265302       -1.3300063816       -2.9412645609
H                -9.8966869921        0.4736438855       -2.5843589046
H                -9.2894171147        2.4903160109       -1.2606880789
H                -6.9854710537        2.7174299550       -0.3336155289
H                -2.5536466995        0.1657585307        0.9927526366
H                -0.3422336885       -0.2792592641       -0.2832510566
H                -0.1907192477        0.8284618624        1.0854005281
H                 1.8701595398        0.7573474115       -0.3168393324
H                 2.0102661097       -0.9827653814       -0.0390512766
H                 3.9917964222       -1.0304700005        1.0832236126
H                 4.2548886099       -0.0836780990        2.5463914182
H                 3.1034350660        2.4949319184        1.0036668605
H                 4.3223842309        4.2653125846       -0.2579488429
H                 6.5478949169        3.7790894789       -1.2376780163
H                 8.3982122053        2.2297394930       -1.6159833470
H                 9.4451334341        0.0069898761       -1.3165557892
H                 8.2443680417       -1.7674599113       -0.0398599937
H                 6.0378179370       -1.3380466488        0.9122417799
H                 2.4929650364       -0.5227418919        3.6089317259
H                 1.0813627736        0.4728095614        3.2863898720
H                 0.4165295439       -1.8968274137        3.4898505700
H                 1.5420423896       -2.3750711714        2.2249666101
H                -2.2453861665       -3.9446238591       -0.2281139257
H                -4.2297892383       -3.6328684079       -1.7249769321



