%chk=./calculation/no_transfer_pubchem_sampling_6_b3lyp/158535243.chk
%nprocshared=7
%mem=6GB
#p b3lyp/6-31g(d) opt SCF=XQC 

Gaussian input prepared by ASE

0 1
C                -7.9589504607        2.0627655042        1.6933548895
C                -6.8071802109        1.2558423754        1.2087679235
C                -5.7850163685        1.6527426604        0.4371276982
C                -4.8821380611        0.5443941117        0.2025386334
C                -3.7062768840        0.4629404442       -0.5232712949
C                -3.0310224581       -0.7505525066       -0.5865879256
C                -1.7321745876       -0.8539742173       -1.3327133237
C                -0.5594491604       -0.5184972796       -0.4074753053
C                 0.7709761216       -0.5970767628       -1.0983610284
C                 1.9558864273       -0.4922937997       -0.3738227601
C                 3.1499355805       -0.5521041742       -1.0881329504
C                 4.4645140769       -0.4881736930       -0.4214187713
C                 5.3565088732       -1.5234613329       -0.6857045079
C                 6.5814050819       -1.5679166559       -0.0524999144
C                 6.9218878174       -0.5717491946        0.8449457173
C                 6.0595831233        0.4850235933        1.0991966519
C                 6.4668482365        1.5626176875        2.0591144758
C                 4.8190011939        0.5398162051        0.4553645711
C                 3.9217263937        1.7199774375        0.6871600739
N                 3.1563786327       -0.7344135684       -2.4052074351
C                 1.9736513949       -0.8338533159       -3.0066175754
N                 1.9780494152       -1.0704425218       -4.3390859220
N                 0.7806699713       -0.7561567002       -2.4128145428
C                -3.5431384869       -1.8574894399        0.0826963318
C                -4.7218656078       -1.7849471878        0.8127353388
C                -5.3887432098       -0.5818020296        0.8704578180
C                -6.6616036351       -0.2008614506        1.5622355082
H                -7.9862032845        2.0729101165        2.7834291773
H                -7.8890382578        3.0870930136        1.3359339063
H                -8.8988278983        1.6334556149        1.3449802875
H                -5.6347797452        2.6408229120        0.0383083660
H                -3.3172339782        1.3289110155       -1.0402988895
H                -1.7183931095       -0.1635969831       -2.1762773461
H                -1.5931458883       -1.8630592231       -1.7224396095
H                -0.5531380575       -1.1983754664        0.4489125074
H                -0.6856882859        0.4941672635       -0.0114070701
H                 1.9479275978       -0.3850216470        0.6983772218
H                 5.0662790641       -2.2910411150       -1.3866377425
H                 7.2689475339       -2.3762976667       -0.2530233900
H                 7.8772347673       -0.6086638100        1.3494821380
H                 7.4145319489        1.3155066196        2.5308888759
H                 6.5802405929        2.5158385177        1.5424059444
H                 5.7150954211        1.6944385694        2.8360706653
H                 3.0977216045        1.7334357035       -0.0202183573
H                 3.5116144128        1.7009253255        1.6975872195
H                 4.4842811287        2.6460334900        0.5778055984
H                 1.1095930722       -0.9764019777       -4.8337133901
H                 2.8470610903       -0.9609691064       -4.8295550959
H                -3.0104729627       -2.7964463416        0.0270413819
H                -5.1034016363       -2.6589065040        1.3218252885
H                -7.5111225823       -0.7873554789        1.2040740608
H                -6.5985467571       -0.3477580303        2.6431978779



