%chk=./calculation/no_transfer_pubchem_sampling_6_b3lyp/158895219.chk
%nprocshared=7
%mem=6GB
#p b3lyp/6-31g(d) opt SCF=XQC 

Gaussian input prepared by ASE

0 1
C                 4.5232664611        0.7660869195        2.2589000882
C                 3.9491342113        0.9693506297        0.8838970701
C                 4.1360638133        2.1954784842        0.2593170005
C                 3.6615959680        2.4225724091       -1.0188601254
C                 2.9994569203        1.4127803789       -1.6893841421
C                 2.7882719295        0.1791570788       -1.0896185706
C                 2.0834310486       -0.8984235953       -1.8554598488
C                 3.2615646386       -0.0450418477        0.2085393607
C                 3.0073115143       -1.3791927412        0.8579210949
C                 1.5532785381       -1.5752920833        1.2419751715
O                 0.9005098512       -2.5465977227        0.8945426720
C                 0.8680911073       -0.4284745447        1.9751368666
N                -0.0416370829        0.1793677196        1.0233906401
C                 0.3208472689        1.3087963682        0.3195379810
C                -0.3021408948        1.6453023038       -0.8412262284
C                -1.3243153611        0.8422386107       -1.3648346719
C                -1.7194888191       -0.2899253757       -0.6311621875
C                -2.8701215291       -1.1511492458       -1.0826591436
C                -4.0619701992       -0.8916040416       -0.1991075030
C                -4.7466201135        0.3141388536       -0.2916771192
C                -5.8235005468        0.5779577943        0.5343286094
C                -6.2301169381       -0.3613363654        1.4672843602
C                -5.5517537941       -1.5633067199        1.5693461428
C                -4.4731252783       -1.8249315704        0.7423840741
C                -1.0898213664       -0.5824010686        0.5441632769
H                 4.9904840218        1.6840270039        2.6075323781
H                 5.2851678909       -0.0133589294        2.2435192667
H                 3.7619677251        0.4788482007        2.9835533266
H                 4.6653522097        2.9804123600        0.7807556025
H                 3.8151086829        3.3814472808       -1.4913246020
H                 2.6364942698        1.5812222007       -2.6927466737
H                 1.7070382454       -0.5089815017       -2.7979195191
H                 1.2451581872       -1.3063700426       -1.2961429381
H                 2.7669309321       -1.7201099395       -2.0720345877
H                 3.6025500202       -1.4828966378        1.7665627092
H                 3.2810619945       -2.1915465182        0.1814128320
H                 1.5713818133        0.3229535885        2.3295353298
H                 0.2818378907       -0.8240135283        2.8132926579
H                 1.1095536596        1.9028733953        0.7511183864
H                -0.0002703208        2.5449374323       -1.3540759559
H                -1.8035185471        1.0942525961       -2.2952967752
H                -2.5871736761       -2.2032707870       -1.0227049586
H                -3.1154140515       -0.9127569743       -2.1191400258
H                -4.4291139408        1.0504746817       -1.0160788702
H                -6.3485533089        1.5185302420        0.4501305506
H                -7.0726051423       -0.1568773671        2.1115507543
H                -5.8639532429       -2.3005333972        2.2949092010
H                -3.9485961596       -2.7663394206        0.8258166204
H                -1.3691035004       -1.4284765665        1.1489294221



