%chk=./calculation/no_transfer_pubchem_sampling_6_b3lyp/160492653.chk
%nprocshared=7
%mem=6GB
#p b3lyp/6-31g(d) opt SCF=XQC 

Gaussian input prepared by ASE

0 1
C                -6.7705880948       -2.6485621098       -2.8820114105
C                -6.9097831062       -1.7670408450       -1.6800740783
C                -5.8761773241       -0.8710502089       -1.3435894784
C                -6.0009378573       -0.0532953405       -0.2413240909
C                -4.9697887065        0.9164293593        0.0811393991
C                -5.0622945111        2.2727799652        0.3539150959
N                -3.8553575827        2.8346536528        0.5024100950
C                -2.9769961825        1.8560543227        0.3411488173
C                -1.5819997740        1.8848928698        0.4082188368
C                -0.8602715116        0.7269031621        0.2199455160
C                 0.5984883318        0.7252916440        0.2692692736
C                 1.3700731127       -0.1226868381       -0.5163968582
N                 2.6859487131       -0.1156261316       -0.5266362225
C                 3.3625753696        0.7293516137        0.2602353945
N                 4.7152538693        0.6225389981        0.1556981224
C                 5.6769851902        1.6918276468        0.3619574761
C                 6.8355988551        1.3536587114       -0.5766566214
C                 6.7658897705       -0.1689922718       -0.6980911025
C                 7.4124352856       -0.9134598631        0.4772169276
C                 7.7042906864       -2.3285668951       -0.0467238216
C                 7.5969767357       -2.2491666227       -1.5806417902
C                 7.4964037906       -0.7583731098       -1.9030073747
C                 5.2535285885       -0.3935424767       -0.7335353663
C                 2.6859716432        1.5868044246        1.1657008252
C                 3.3759767243        2.4273705643        2.2014960895
C                 1.3089130573        1.5730649867        1.1294008959
C                -1.5706187193       -0.4812931178       -0.0182576706
C                -2.9263596551       -0.5000354691       -0.0829748526
N                -3.6243922589        0.6512182423        0.0657876585
C                -7.1868141314       -0.1618061623        0.5418848220
C                -7.4148242863        0.5626741657        1.7265436596
C                -8.5844478060        0.4114206641        2.4207554076
C                -9.5743461945       -0.4714588023        1.9658101644
C                -9.3727271922       -1.2113654356        0.8344148315
C                -8.1744200742       -1.0851386406        0.1023769898
N                -8.0153330252       -1.8600012946       -0.9894891181
H                -6.6341983381       -2.0446906374       -3.7778991438
H                -5.9023407536       -3.2977672497       -2.7770234772
H                -7.6629975404       -3.2571879286       -2.9909097689
H                -5.0084332767       -0.8050403001       -1.9849016531
H                -5.9550007105        2.8651571589        0.4126682380
H                -1.1067800237        2.8336991350        0.5929098348
H                 0.9163785396       -0.8258407177       -1.2033467647
H                 5.2430851806        2.6663818060        0.1289760694
H                 6.0267960901        1.7007110658        1.4002873802
H                 7.7910757294        1.7059064175       -0.1919300693
H                 6.6699883865        1.8013839610       -1.5580185673
H                 8.3441956393       -0.4157107228        0.7509506083
H                 6.7661210240       -0.9261813069        1.3530158751
H                 6.9863824743       -3.0459877650        0.3491846940
H                 8.6963325748       -2.6557732285        0.2624928740
H                 6.6963131890       -2.7589433261       -1.9224696433
H                 8.4502352589       -2.7127314320       -2.0735806347
H                 8.4926175861       -0.3165749932       -1.9668395687
H                 6.9765654490       -0.5701927901       -2.8413138878
H                 4.8554499754       -0.2644178184       -1.7473422384
H                 4.9531854482       -1.3805326191       -0.3807749468
H                 2.6521828773        2.7485452526        2.9478022472
H                 3.8246969479        3.3201375469        1.7694421356
H                 4.1535793324        1.8569413255        2.7032578085
H                 0.7605438534        2.2016060776        1.8176482475
H                -1.0257661285       -1.4050305094       -0.1237462221
H                -3.4954700534       -1.4052823135       -0.2334302117
H                -6.6490362617        1.2324236534        2.0885612794
H                -8.7490797907        0.9711504020        3.3298191940
H               -10.4932770265       -0.5707727902        2.5250906994
H               -10.1101783820       -1.9108577118        0.4731241709



