%chk=calculation/no_transfer_pubchem_sampling_6_b3lyp/160492653_rwf.chk
%rwf=calculation/no_transfer_pubchem_sampling_6_b3lyp/160492653_rwf.rwf
%nprocshared=14
%mem=3GB
#p b3lyp/6-31g(d) 6D 10F nosymm GFInput td=(50-50,nstate=2) SCF=XQC 

Gaussian input prepared by ASE

0 1
C                -6.8923795458       -2.5214435772       -2.9774323064
C                -7.0315621167       -1.6901218394       -1.7251113548
C                -5.9884982290       -0.8033966990       -1.3458792493
C                -6.0935437992       -0.0235362462       -0.2062419923
C                -5.0426891285        0.9331061612        0.1502740518
C                -5.1011069371        2.2822331693        0.4897411623
N                -3.8780129973        2.8458542663        0.6394471032
C                -3.0104283300        1.8569994747        0.4108921423
C                -1.6013068870        1.8632777973        0.4470116100
C                -0.8785423561        0.7083350997        0.2034370372
C                 0.5963185529        0.6952014430        0.2376549972
C                 1.3557972105       -0.1635373702       -0.5635743417
N                 2.6871619123       -0.1806207225       -0.5974444306
C                 3.3801375657        0.6630871649        0.1905438261
N                 4.7561951683        0.5854255183        0.0782939394
C                 5.6514329886        1.7580576926        0.1602614877
C                 6.8489409583        1.3780169009       -0.7272503079
C                 6.8582819058       -0.1605545047       -0.7223780944
C                 7.5129157241       -0.7887015587        0.5328325125
C                 7.8314558672       -2.2544017467        0.1413843007
C                 7.8479252494       -2.2874140941       -1.4168976688
C                 7.6527894521       -0.8220683489       -1.8625367316
C                 5.3465852784       -0.4549496008       -0.7772866233
C                 2.7237421712        1.5286499562        1.1191901957
C                 3.4513839100        2.3196297563        2.1821694681
C                 1.3364766536        1.5302981987        1.0960197122
C                -1.6133464056       -0.4921599935       -0.0761948278
C                -2.9762972445       -0.5029918382       -0.1227108639
N                -3.6763109098        0.6595900534        0.0947663352
C                -7.2874288950       -0.1628146963        0.5837429225
C                -7.5158031186        0.5171286431        1.8085431856
C                -8.6926270486        0.3417989807        2.5048106558
C                -9.6952497606       -0.5248507897        2.0114732310
C                -9.4937876214       -1.2183404424        0.8393580644
C                -8.2894847752       -1.0667662942        0.1035786377
N                -8.1489028665       -1.8122191317       -1.0331452304
H                -6.7360347213       -1.8876044957       -3.8593377926
H                -6.0314994209       -3.1989975794       -2.9112008608
H                -7.7963078259       -3.1155502050       -3.1259689561
H                -5.1218257187       -0.7075099770       -1.9940691349
H                -6.0048684907        2.8692163585        0.5948198745
H                -1.1168885119        2.8109660051        0.6527099960
H                 0.8653411175       -0.8594276159       -1.2432388709
H                 5.1478115899        2.6641048173       -0.1969175041
H                 5.9737600636        1.9406981110        1.1917749709
H                 7.7873992564        1.8126399546       -0.3662175046
H                 6.6866021352        1.7398628595       -1.7503400320
H                 8.4422047456       -0.2487635134        0.7581430278
H                 6.8743463441       -0.7168018709        1.4200727686
H                 7.0704811330       -2.9383140370        0.5324120184
H                 8.7864211959       -2.5781026889        0.5683207175
H                 7.0272148250       -2.9089809059       -1.7928035555
H                 8.7728457469       -2.7164987911       -1.8159197903
H                 8.6269482046       -0.3218961059       -1.9512386820
H                 7.1537899451       -0.7301981334       -2.8344809972
H                 4.9677790597       -0.3844017235       -1.8071625159
H                 5.0718840008       -1.4457951150       -0.4030402076
H                 2.7389122223        2.6900401619        2.9258179503
H                 3.9910912614        3.1877937953        1.7880475381
H                 4.1829020275        1.6926108919        2.7051766713
H                 0.8078014488        2.1587413906        1.8091417201
H                -1.0882775224       -1.4290319069       -0.2215773294
H                -3.5632207213       -1.3937842965       -0.3047879375
H                -6.7432785640        1.1673182921        2.2041339644
H                -8.8473472013        0.8665940485        3.4435800316
H               -10.6201681370       -0.6509479980        2.5679289117
H               -10.2360520834       -1.9037795091        0.4424999546



