%chk=calculation/no_transfer_pubchem_sampling_6_b3lyp/16989447_rwf.chk
%rwf=calculation/no_transfer_pubchem_sampling_6_b3lyp/16989447_rwf.rwf
%nprocshared=14
%mem=3GB
#p b3lyp/6-31g(d) 6D 10F nosymm GFInput td=(50-50,nstate=2) SCF=XQC 

Gaussian input prepared by ASE

0 1
C                -8.1674526489       -1.5519655686        3.2060577090
C                -7.7062273961       -2.2279595041        1.9108437392
C                -6.2431656216       -2.6887253771        1.9545557292
C                -5.7813832330       -3.3629989789        0.6552655760
C                -4.3496810830       -3.9269961687        0.6962297734
C                -3.2235569167       -2.8985839181        0.9065831880
C                -3.0947428897       -1.8616057195       -0.2199874280
C                -1.8646167035       -0.9436291820       -0.1077262675
C                -1.9077203787        0.0366726961        1.0752916847
C                -0.6264472206        0.8693364988        1.2536048958
C                -0.3170365212        1.8219176334        0.0917094320
C                 0.9650102903        2.6281978504        0.3425540358
N                 1.2819988357        3.5582540590       -0.7376961424
C                 2.1156131696        3.3496376372       -1.8267240690
C                 2.9384971645        2.1012754452       -1.9781555555
C                 3.4264724495        1.8892552942       -3.4205928179
C                 4.3727634146        0.6853382570       -3.6119213852
C                 3.7095932750       -0.6656280945       -3.9375153620
C                 2.8682065773       -1.3211369987       -2.8330024108
N                 3.6458376486       -1.6299314661       -1.6379634984
C                 3.2317306423       -1.3506469259       -0.3658078598
O                 2.1643087245       -0.7802211489       -0.1264947790
C                 4.1875061293       -1.7737488083        0.7181717006
C                 5.5639509495       -1.5665172738        0.5396690567
C                 6.4809163454       -1.9175928726        1.5283727445
C                 6.0197143120       -2.4964493105        2.7091313264
C                 4.6526315499       -2.7062576447        2.8910896414
C                 3.7107680374       -2.3447884635        1.9196434264
C                 2.2427419727       -2.5840383917        2.1882869737
N                 2.1306546777        4.3604784570       -2.6674394284
C                 1.2617587831        5.2961228196       -2.1283617102
C                 0.8967430183        6.5623080361       -2.6008985480
C                -0.0076192693        7.3082984501       -1.8501636357
C                -0.5455338888        6.8106188992       -0.6470009815
C                -0.1960875050        5.5525310213       -0.1593724094
C                 0.7129029028        4.8108059143       -0.9177407263
H                -7.5643995436       -0.6621373457        3.4254630792
H                -9.2151860119       -1.2362513852        3.1427828737
H                -8.0756570721       -2.2316235266        4.0623884009
H                -8.3514788351       -3.0925214968        1.6989193898
H                -7.8420235063       -1.5350525235        1.0681097689
H                -6.1087085012       -3.3878567752        2.7941455550
H                -5.6041501782       -1.8223647649        2.1764082581
H                -6.4693775304       -4.1888033230        0.4235326844
H                -5.8797375951       -2.6516668863       -0.1766421409
H                -4.2921042104       -4.6790815605        1.4964460038
H                -4.1598970072       -4.4679832904       -0.2421658941
H                -3.3635502022       -2.3927817722        1.8704760393
H                -2.2718404996       -3.4434867936        0.9902287330
H                -3.0475472511       -2.3954618025       -1.1804989602
H                -4.0009579193       -1.2408556219       -0.2645489179
H                -1.7720105080       -0.3762874086       -1.0430021167
H                -0.9534548803       -1.5556216404       -0.0355580175
H                -2.7713959746        0.7088019497        0.9572552130
H                -2.0815799089       -0.5201983453        2.0053471660
H                 0.2272155719        0.1917923517        1.3848880540
H                -0.7126692990        1.4540687144        2.1814470518
H                -1.1558125557        2.5128654737       -0.0694245000
H                -0.1893086008        1.2553037851       -0.8376097365
H                 0.8771669534        3.2118265013        1.2669858477
H                 1.8091944565        1.9460770424        0.4726831413
H                 2.3706862891        1.2386528142       -1.6166277825
H                 3.8135808202        2.1718144163       -1.3122331300
H                 2.5597391228        1.7956912905       -4.0883289042
H                 3.9353266168        2.8057250280       -3.7342647878
H                 5.0492742057        0.9110239147       -4.4461252982
H                 5.0174980429        0.5751094781       -2.7285346583
H                 4.4938001622       -1.3756800972       -4.2409760800
H                 3.0607509187       -0.5471036899       -4.8163120798
H                 2.4192781875       -2.2451220106       -3.2252254820
H                 2.0443525389       -0.6830149387       -2.5117522645
H                 4.4610438404       -2.2179958210       -1.7454862927
H                 5.9170993795       -1.0946992813       -0.3735435577
H                 7.5414288267       -1.7370061506        1.3773295112
H                 6.7194757134       -2.7832242784        3.4895676583
H                 4.3009359984       -3.1625536416        3.8133212188
H                 2.1175164059       -3.2566719302        3.0427437539
H                 1.7303914053       -3.0209302500        1.3259871952
H                 1.7255905076       -1.6451268997        2.4101704995
H                 1.3161069950        6.9404885706       -3.5285642337
H                -0.3069344243        8.2942437476       -2.1955907942
H                -1.2496734792        7.4197310831       -0.0864730169
H                -0.6170420586        5.1743219379        0.7680799316



