%chk=./calculation/no_transfer_pubchem_sampling_6_b3lyp/16989447.chk
%nprocshared=7
%mem=6GB
#p b3lyp/6-31g(d) opt SCF=XQC 

Gaussian input prepared by ASE

0 1
C                -8.2524437497       -1.2969648247        2.1047207201
C                -7.6582742359       -2.0723110046        0.9352154219
C                -6.2350496220       -2.5413437738        1.2283971821
C                -5.6346401355       -3.3055418808        0.0507821505
C                -4.2698123269       -3.9246263065        0.3570546808
C                -3.1767392193       -2.9205839128        0.7269650295
C                -2.8761722083       -1.9218209945       -0.3890157869
C                -1.6259029883       -1.0816358499       -0.1249423220
C                -1.7958274693       -0.0987367609        1.0317493354
C                -0.5474039248        0.7466523337        1.2868246512
C                -0.2980336205        1.8048189745        0.2159400908
C                 0.9560344414        2.6182730135        0.5492493708
N                 1.2806675762        3.5541926140       -0.4935332797
C                 2.1166902567        3.3907640916       -1.5675660276
C                 2.8842161432        2.1463789331       -1.8441079977
C                 2.2973944892        1.4130760571       -3.0577141852
C                 3.0379760753        0.1030953123       -3.3700140963
C                 2.1725738555       -1.1433174309       -3.1762516840
C                 1.8304204301       -1.4200870923       -1.7122997355
N                 3.0011924967       -1.7725313868       -0.9430816632
C                 3.3981101489       -1.1056726387        0.1609068335
O                 2.7803009045       -0.1577782860        0.6161326595
C                 4.6671013118       -1.6270582197        0.7530263610
C                 5.7741404909       -1.7953513590       -0.0722796817
C                 6.9762053517       -2.2433226407        0.4436513449
C                 7.0732983703       -2.5329379446        1.7934954375
C                 5.9746870518       -2.3649688635        2.6175965238
C                 4.7623286778       -1.9055333363        2.1200113760
C                 3.5805233559       -1.7392927937        3.0230354904
N                 2.1566852293        4.4342578613       -2.3490995946
C                 1.3079440155        5.3550079731       -1.7948971318
C                 0.9688930591        6.6379702879       -2.2083067143
C                 0.0693092331        7.3428023111       -1.4366646027
C                -0.4877292796        6.7976493645       -0.2784684434
C                -0.1646836795        5.5258248715        0.1501439192
C                 0.7392098243        4.8107860041       -0.6191647389
H                -7.6525922977       -0.4158252771        2.3227880219
H                -9.2655345270       -0.9739820017        1.8763494747
H                -8.2834669719       -1.9180903748        2.9974790940
H                -8.2873698023       -2.9388041130        0.7179247622
H                -7.6521234040       -1.4382355894        0.0453541120
H                -6.2431372010       -3.1861186508        2.1107756469
H                -5.6185627930       -1.6703900232        1.4574451836
H                -6.3181342764       -4.1121093770       -0.2280477704
H                -5.5529592327       -2.6397036924       -0.8100951884
H                -4.3839328870       -4.6316031198        1.1830010487
H                -3.9438847032       -4.4928899856       -0.5183326478
H                -3.4666183751       -2.3897477496        1.6336016216
H                -2.2642949410       -3.4792320166        0.9529925316
H                -2.7361797395       -2.4741272826       -1.3222802063
H                -3.7268599367       -1.2521733101       -0.5250562491
H                -1.3876750793       -0.5277549283       -1.0351543343
H                -0.7839278373       -1.7430654509        0.0929418915
H                -2.6436389151        0.5596362085        0.8264429465
H                -2.0219696569       -0.6577979382        1.9412873419
H                 0.3286098789        0.0977889893        1.3492723396
H                -0.6548091171        1.2495289333        2.2511983327
H                -1.1593374581        2.4729538559        0.1369982010
H                -0.1565590312        1.3303788894       -0.7565280761
H                 0.7977393640        3.1814023746        1.4739767640
H                 1.7933016141        1.9360986602        0.7061832470
H                 2.8834510633        1.4937006643       -0.9726855261
H                 3.9153158320        2.4269740882       -2.0701654457
H                 1.2405296730        1.2071327808       -2.8752361716
H                 2.3478369687        2.0905247858       -3.9104863959
H                 3.3864446878        0.1165680021       -4.4039548231
H                 3.9208427870        0.0233728851       -2.7324235232
H                 2.6961040448       -2.0130866422       -3.5836925564
H                 1.2414014790       -1.0298145591       -3.7341951858
H                 1.1004060913       -2.2366132490       -1.6566560172
H                 1.4027204189       -0.5364662283       -1.2366552701
H                 3.5500692093       -2.5539412723       -1.2662861892
H                 5.7005221018       -1.5503225473       -1.1230876465
H                 7.8313289247       -2.3640453772       -0.2042474856
H                 8.0068377663       -2.8860164286        2.2058444554
H                 6.0586693148       -2.5906665521        3.6709922174
H                 3.8604927634       -1.9043311384        4.0601829145
H                 2.7963733944       -2.4481416227        2.7563206430
H                 3.1671012080       -0.7388136402        2.9179965813
H                 1.4011723229        7.0568266883       -3.1029791941
H                -0.2156781155        8.3427663526       -1.7303362893
H                -1.1894916204        7.3865876411        0.2942993927
H                -0.6017183188        5.1115356364        1.0471565334



