%chk=calculation/no_transfer_pubchem_sampling_6_b3lyp/17003127_rwf.chk
%rwf=calculation/no_transfer_pubchem_sampling_6_b3lyp/17003127_rwf.rwf
%nprocshared=14
%mem=3GB
#p b3lyp/6-31g(d) 6D 10F nosymm GFInput td=(50-50,nstate=2) SCF=XQC 

Gaussian input prepared by ASE

0 1
C                 6.3277414873        3.4547824703       -1.0351770351
C                 6.8576915820        2.0705514198       -0.6430014521
C                 5.9468067368        0.9014362202       -1.0589076177
C                 4.5416880715        0.8810071147       -0.4305851148
C                 4.5327952259        0.7413861718        1.1007819530
C                 3.1265527743        0.6258862286        1.7334259664
C                 2.6084146357       -0.8057396300        1.9657090002
C                 2.4059934626       -1.6605773376        0.7052368447
C                 1.7750277072       -3.0363335132        0.9806435735
C                 0.2685959679       -3.0216630681        1.3001504613
N                -0.5707873993       -2.6599505832        0.1595843002
C                -1.2525670711       -1.4751694134       -0.0843224878
C                -1.2878300812       -0.3435688115        0.9108742398
C                -2.2537794184       -0.6267596793        2.0923823729
C                -3.5250026644        0.1662628388        1.7770169265
O                -4.6024540433        0.0407239034        2.3332329015
N                -3.2213928728        1.0556201246        0.7745866720
C                -4.1702652614        1.9706196475        0.2108255398
C                -4.0644462950        3.3427615777        0.5062601598
C                -3.0063496920        3.8723077749        1.4461131182
C                -4.9798861544        4.2227889516       -0.0819328648
C                -5.9782828963        3.7524460273       -0.9308892158
C                -6.0775074927        2.3888663839       -1.1979189829
C                -5.1802977379        1.4736354591       -0.6362223788
C                -5.3085235585       -0.0018791744       -0.9238949875
C                -1.8462501200        0.9618987909        0.2820610784
N                -1.8904859222       -1.4766484309       -1.2322548479
C                -1.6381338489       -2.7176585415       -1.7956085711
C                -2.0789359880       -3.2597349726       -3.0083865294
C                -1.6827875525       -4.5548118972       -3.3277270715
C                -0.8646478705       -5.3046377126       -2.4599602262
C                -0.4134298977       -4.7812680011       -1.2498988588
C                -0.8122753052       -3.4787476593       -0.9379137264
H                 6.1451428632        3.5163238303       -2.1154427703
H                 7.0466793907        4.2398850538       -0.7744994943
H                 5.3857232704        3.6922076133       -0.5275357416
H                 7.8405202041        1.9204996396       -1.1097191047
H                 7.0354531048        2.0404822472        0.4403360309
H                 6.4545524722       -0.0434868394       -0.8164938723
H                 5.8387266550        0.9149478660       -2.1529708700
H                 3.9780796590        0.0549113674       -0.8815637438
H                 3.9964877274        1.7948430797       -0.7055227195
H                 5.0392655347        1.6130607914        1.5337270450
H                 5.1389737850       -0.1291513004        1.3945985559
H                 3.1333699588        1.1295933049        2.7087828654
H                 2.4040640275        1.1810464392        1.1165599736
H                 1.6607879177       -0.7354383600        2.5198216937
H                 3.3042227930       -1.3301765835        2.6374326341
H                 3.3765179496       -1.8230114373        0.2216796752
H                 1.7935132020       -1.1169718104       -0.0279439683
H                 2.2879616080       -3.5123426422        1.8280876505
H                 1.9355196841       -3.6903983875        0.1157473058
H                -0.0444933690       -4.0167715251        1.6382256626
H                 0.0471286034       -2.3311366703        2.1172487145
H                -0.2729150662       -0.1647281573        1.2782264030
H                -1.8482558381       -0.2644207101        3.0449939786
H                -2.5032429829       -1.6827702954        2.2216960140
H                -3.2864946193        4.8605337484        1.8235907257
H                -2.8643740821        3.2089896166        2.3055652568
H                -2.0319118345        3.9801725001        0.9507714628
H                -4.9109708072        5.2847921333        0.1413941330
H                -6.6841135320        4.4475418638       -1.3782036325
H                -6.8620558374        2.0204445515       -1.8542170422
H                -4.3507600132       -0.4435723486       -1.2207767377
H                -6.0349072326       -0.1759986474       -1.7239184170
H                -5.6504324248       -0.5366033266       -0.0299086089
H                -1.8375165974        0.9145901977       -0.8087548262
H                -1.2535444185        1.8276258395        0.6043554526
H                -2.7146236747       -2.6778303881       -3.6687869189
H                -2.0114052497       -5.0011286391       -4.2621251551
H                -0.5789028361       -6.3150520297       -2.7389877790
H                 0.2132394972       -5.3693332641       -0.5858799712



