%chk=./calculation/no_transfer_pubchem_sampling_6_b3lyp/20039727.chk
%nprocshared=7
%mem=6GB
#p b3lyp/6-31g(d) opt SCF=XQC 

Gaussian input prepared by ASE

0 1
C                -0.4135963380       -2.7578131884       -1.6200611596
C                -0.1434368990       -1.4342472965       -1.0107755473
C                 1.0611481720       -0.8866279235       -0.6042792147
C                 0.7819203409        0.4131929534       -0.0813836259
C                -0.5801849389        0.6030165107       -0.1976109049
N                -1.1176693037       -0.5156800571       -0.7538216873
C                -2.5335377301       -0.6332340456       -0.9894330887
C                -3.2992143075        0.0451714011        0.1192670650
C                -4.5085941778       -0.4626286742        0.5683190289
C                -5.2036181735        0.1816416763        1.5764597319
C                -4.6840193420        1.3312286614        2.1469626400
C                -3.4726302954        1.8355962241        1.7082188909
C                -2.7754937215        1.2028142037        0.6901355157
C                -1.4609022463        1.7330249083        0.1864831727
C                 1.7901775137        1.2954918346        0.4628741443
O                 1.5527600627        2.4044959058        0.9181859144
C                 3.1639181661        0.7279365663        0.4233966707
C                 4.2066486254        1.5023108574        0.9240208083
C                 5.5082944923        1.0372677789        0.9128415545
C                 5.7864298960       -0.2186952056        0.3956062016
C                 4.7606549499       -0.9984586395       -0.1049786043
C                 3.4448036496       -0.5440709951       -0.0998267587
C                 2.3964578091       -1.4440158708       -0.6542894246
O                 2.6652605112       -2.5480298190       -1.1038753104
H                 0.5322759514       -3.2762447183       -1.7498213661
H                -0.8989033622       -2.6504048889       -2.5905781096
H                -1.0588597637       -3.3590000993       -0.9779486902
H                -2.8076887945       -1.6881653850       -1.0571051736
H                -2.7819069911       -0.1539007147       -1.9487267266
H                -4.9084520211       -1.3633580163        0.1249308964
H                -6.1461931739       -0.2170722703        1.9195095357
H                -5.2210026598        1.8329366630        2.9377040642
H                -3.0615738856        2.7283599577        2.1556227350
H                -1.6436107866        2.3677168994       -0.6907560906
H                -0.9561413820        2.3485130488        0.9321316242
H                 3.9658587406        2.4778020591        1.3209319964
H                 6.3049881665        1.6516358462        1.3058241753
H                 6.8011877176       -0.5884487137        0.3831607019
H                 4.9544485293       -1.9800604344       -0.5124295848



