%chk=calculation/no_transfer_pubchem_sampling_6_b3lyp/20039727_rwf.chk
%rwf=calculation/no_transfer_pubchem_sampling_6_b3lyp/20039727_rwf.rwf
%nprocshared=14
%mem=3GB
#p b3lyp/6-31g(d) 6D 10F nosymm GFInput td=(50-50,nstate=2) SCF=XQC 

Gaussian input prepared by ASE

0 1
C                -0.3972034239       -2.7916769948       -1.6211181905
C                -0.1111353196       -1.4769342706       -0.9742016512
C                 1.0949799480       -0.9078557156       -0.5922129824
C                 0.8123873655        0.3736155668       -0.0124894353
C                -0.5585235423        0.5536325322       -0.0555626065
N                -1.1008636742       -0.5716417486       -0.6338053811
C                -2.5358462112       -0.7214922025       -0.8687689693
C                -3.3485700017        0.0335759256        0.1643320465
C                -4.6309396920       -0.4095397963        0.5033080280
C                -5.4034413597        0.2947161660        1.4251669954
C                -4.8868741895        1.4454778472        2.0237550574
C                -3.6047720104        1.8834130741        1.6954690716
C                -2.8272037076        1.1910095873        0.7611896656
C                -1.4410809041        1.6771089341        0.3837908428
C                 1.8397506651        1.2555909501        0.5226199060
O                 1.6011515147        2.3559206197        1.0246930162
C                 3.2417724193        0.7260236620        0.4214356446
C                 4.2880670204        1.5139371669        0.9129928508
C                 5.6049485017        1.0664267553        0.8391728050
C                 5.8890095211       -0.1790833708        0.2694531471
C                 4.8553716976       -0.9719270233       -0.2235634741
C                 3.5282980846       -0.5337164087       -0.1545708286
C                 2.4532421793       -1.4334591609       -0.7010721384
O                 2.7326953438       -2.5265250486       -1.1961852918
H                 0.5513470630       -3.3017671077       -1.7948153511
H                -0.9133768352       -2.6732583052       -2.5831005780
H                -1.0245548842       -3.4336846369       -0.9878649936
H                -2.7825640166       -1.7862934120       -0.8446777232
H                -2.7696922495       -0.3613824318       -1.8822341178
H                -5.0252961806       -1.3138723280        0.0445814974
H                -6.3975949945       -0.0593179827        1.6829573630
H                -5.4770907323        1.9951551848        2.7517345867
H                -3.1966661710        2.7730155533        2.1692484100
H                -1.5208994817        2.4198339648       -0.4279961867
H                -0.9544801916        2.2045583683        1.2088146698
H                 4.0396954987        2.4762222943        1.3492169321
H                 6.4107037023        1.6857258823        1.2242768632
H                 6.9160377745       -0.5295982984        0.2108974939
H                 5.0492144740       -1.9419367916       -0.6699809934



