%chk=./calculation/no_transfer_pubchem_sampling_6_b3lyp/21332164.chk
%nprocshared=7
%mem=6GB
#p b3lyp/6-31g(d) opt SCF=XQC 

Gaussian input prepared by ASE

0 1
C                -1.2237500697       -1.0554305530       -2.0443735997
C                -1.2938010754       -1.2071170757       -0.5202519356
C                -2.7381347613       -0.8674597689       -0.1211380006
C                -1.0426274813       -2.6617392517       -0.0930147677
C                -0.2993572640       -0.2343696691        0.2213437664
C                -0.7484035198        1.2095126786       -0.0205577342
C                -1.5648936171        1.9141425011        0.8533294167
C                -1.9491733426        3.2138193785        0.5670359700
C                -1.5321118522        3.8307671127       -0.5977496872
C                -0.7158759538        3.1377253270       -1.4750547939
C                -0.3242716429        1.8436041850       -1.1873269952
C                 1.1829871859       -0.2814545487       -0.1623821104
C                 1.8088818994       -1.2266701025       -0.9655202847
C                 3.1676173113       -1.1578688917       -1.2219754477
C                 3.9386710203       -0.1427068684       -0.6647118319
C                 5.3255286641       -0.0730497427       -0.9316950863
N                 6.4489688036       -0.0183803305       -1.1517163254
C                 3.3300478504        0.8003578702        0.1648425616
C                 1.9765052349        0.7222732404        0.4053010341
N                -0.3069998442       -0.5974949946        1.6380626075
C                 0.6460993089       -1.2654090145        2.3187508921
N                 0.2559943934       -1.5014147278        3.5473596533
C                -0.9747619639       -0.9622703814        3.5893123122
N                -1.3497692982       -0.4175653323        2.4577633372
H                -1.5593507769       -0.0642542515       -2.3385395018
H                -0.2324394180       -1.2112865797       -2.4543400926
H                -1.8946553761       -1.7807508516       -2.4998607743
H                -3.4054430773       -1.6234085441       -0.5287987302
H                -3.0381046534        0.1000970309       -0.5147799539
H                -2.8544823997       -0.8509022847        0.9586407069
H                -1.4157967579       -2.8294500677        0.9153169727
H                -1.5801884582       -3.3339432355       -0.7579216290
H                 0.0068114601       -2.9387726995       -0.1049198837
H                -1.9070143176        1.4492631653        1.7635627686
H                -2.5824841283        3.7427051986        1.2636895619
H                -1.8359797322        4.8425920656       -0.8202730324
H                -0.3763161045        3.6059936802       -2.3871134749
H                 0.3287812285        1.3298924995       -1.8772118067
H                 1.2629850811       -2.0413155533       -1.4085701662
H                 3.6345778496       -1.8983093216       -1.8546197351
H                 3.9217952789        1.5844202562        0.6125178246
H                 1.5171520756        1.4570052420        1.0502977039
H                 1.5898540308       -1.5677794125        1.9171337685
H                -1.5970707901       -0.9735963765        4.4601565230



