%chk=calculation/no_transfer_pubchem_sampling_6_b3lyp/22587254_rwf.chk
%rwf=calculation/no_transfer_pubchem_sampling_6_b3lyp/22587254_rwf.rwf
%nprocshared=14
%mem=3GB
#p b3lyp/6-31g(d) 6D 10F nosymm GFInput td=(50-50,nstate=2) SCF=XQC 

Gaussian input prepared by ASE

0 1
C                -3.6638160881       -2.7508555496        1.6710772549
C                -3.5522260088       -1.6680362616        0.6196277276
C                -4.4944268402       -0.6376916668        0.5884984337
C                -4.4748465891        0.3721369785       -0.3770517408
C                -3.4595340029        0.3663809317       -1.3510971311
C                -2.5271347818       -0.6716860399       -1.3375152867
C                -2.5527497318       -1.6849972455       -0.3761295139
C                -1.4603864914       -2.7366989808       -0.4040694525
N                -0.2931384283       -2.3519061699        0.3969799074
C                 0.1435282762       -3.0562014571        1.4676901040
O                -0.3589110939       -4.0960372126        1.8806888268
C                 1.3477533492       -2.4653067297        2.2294151954
N                 2.0641492369       -1.3802650442        1.5850504918
C                 1.9108715624       -0.0434659071        1.8523512279
C                 2.7580403620        0.7136078001        1.0695828786
C                 2.7466891817        2.1884120335        1.1755124728
O                 1.7394915363        2.7856571695        1.5514248798
C                 3.9862879906        2.9351289844        0.8915809772
C                 5.3203700480        2.6033632438        0.8714960200
C                 6.0437882784        3.8170849843        0.6846818070
C                 5.1000403519        4.8015858761        0.6050083007
O                 3.8554991427        4.2913293358        0.7359636795
C                 3.4806422794       -0.2229387627        0.2275960928
C                 4.4131316412       -0.1125736262       -0.8204678034
C                 4.8725128660       -1.2655079876       -1.4455047371
C                 4.4164671933       -2.5403273137       -1.0589906032
C                 3.4756947400       -2.6850954295       -0.0462286667
C                 3.0185067778       -1.5212972485        0.5795165707
O                -3.3308101320        1.3157859399       -2.3403785079
C                -3.6128490034        2.6680654540       -1.9506573994
C                -5.1036271122        2.9944026164       -2.0693477508
C                -5.9573929571        1.8417179028       -1.5379227934
O                -5.4584339545        1.3299402292       -0.2938659089
H                -4.0397905996       -3.6883275194        1.2387360952
H                -2.7040224784       -2.9895285162        2.1388577228
H                -4.3632512660       -2.4535104767        2.4584189774
H                -5.2948539265       -0.6039500461        1.3223821475
H                -1.7581037628       -0.6573508740       -2.1062081869
H                -1.7955586230       -3.6947675463       -0.0037772012
H                -1.1321925761       -2.9016621785       -1.4373470550
H                 0.1640426634       -1.4781144690        0.1725548823
H                 2.0332080085       -3.2926309912        2.4330300619
H                 0.9796724135       -2.1120251619        3.1973309260
H                 1.2118320403        0.3001426500        2.6022119418
H                 5.7297163678        1.6116060119        0.9962733085
H                 7.1156734529        3.9420449289        0.6215913791
H                 5.1554898954        5.8698803681        0.4565696185
H                 4.7643054710        0.8609481434       -1.1444917979
H                 5.5932632424       -1.1816213159       -2.2541461247
H                 4.7940871173       -3.4228464118       -1.5673238864
H                 3.1019601560       -3.6652858648        0.2346808086
H                -3.0172828959        3.2982021360       -2.6174609234
H                -3.2611396995        2.8298365821       -0.9252123279
H                -5.3793362694        3.1770294465       -3.1156769889
H                -5.3065256718        3.9167956911       -1.5110284057
H                -6.0057307183        1.0278449157       -2.2707254254
H                -6.9786409399        2.1735786508       -1.3294350991



