%chk=calculation/no_transfer_pubchem_sampling_6_b3lyp/2351692_rwf.chk
%rwf=calculation/no_transfer_pubchem_sampling_6_b3lyp/2351692_rwf.rwf
%nprocshared=14
%mem=3GB
#p b3lyp/6-31g(d) 6D 10F nosymm GFInput td=(50-50,nstate=2) SCF=XQC 

Gaussian input prepared by ASE

0 1
C                -0.3257823094        5.8026156529       -1.1521036382
C                -0.7123769557        4.3437466834       -1.1562503210
C                 0.1847644456        3.3749729361       -0.6708759124
C                -0.1430691822        2.0232104769       -0.6657288576
O                 0.7239513540        1.0702190852       -0.2051526999
C                 2.0571359316        1.4215389190        0.0686218571
C                 2.8507875518        0.1145075680        0.2231280661
O                 2.5657944887       -0.8952942223       -0.3932004166
N                 3.9280640777        0.2430872177        1.0738108863
C                 4.9367791968       -0.6944425485        1.3667488722
C                 4.9710405655       -1.9853979049        0.8137592837
C                 6.0066436962       -2.8481215938        1.1539941176
C                 7.0179465188       -2.4508990926        2.0436807744
C                 8.0792510226       -3.3491358942        2.3869700597
N                 8.9432172553       -4.0764727527        2.6673724720
C                 6.9765493055       -1.1592996036        2.5953489086
C                 5.9469077696       -0.2940110992        2.2581652660
C                -1.4085975934        1.5604685349       -1.1398033502
C                -1.8763837663        0.1718464009       -1.1830863078
C                -1.0251784455       -0.9440581017       -0.6281793562
C                -3.1092700199       -0.0982468724       -1.7200188767
C                -3.7073314046       -1.4907360834       -1.8723053432
C                -4.3958863469       -2.0314139662       -0.6244063928
C                -5.4968663894       -1.3629211129       -0.0674445705
C                -6.1326439928       -1.8643510040        1.0675827271
C                -5.6839100438       -3.0446086740        1.6660627322
C                -4.5969473970       -3.7222910459        1.1152246270
C                -3.9603322513       -3.2170469346       -0.0210988742
C                -3.9848018446        0.9744191736       -2.1924704980
O                -5.1054440614        0.8370646371       -2.6388051947
O                -3.4995235626        2.2680608414       -2.1152865089
C                -2.2689540582        2.5652723214       -1.6203322928
C                -1.9438710737        3.9251361354       -1.6341991691
H                -1.1387745091        6.4313334949       -1.5257689939
H                -0.0732433270        6.1438246651       -0.1405503202
H                 0.5544903047        5.9816292314       -1.7821902968
H                 1.1437583508        3.7036541874       -0.2869310356
H                 2.4952084901        1.9896797848       -0.7660901352
H                 2.1266294443        2.0444271666        0.9736358518
H                 4.0168703861        1.1275391595        1.5575057355
H                 4.1925238074       -2.2967983559        0.1324238650
H                 6.0332378071       -3.8452534610        0.7266501285
H                 7.7520195664       -0.8415184125        3.2844060677
H                 5.9244543158        0.7044188794        2.6893937850
H                -1.5361352071       -1.9022662908       -0.6938523176
H                -0.0599411406       -1.0141083655       -1.1361288048
H                -0.7967909000       -0.7601624136        0.4259670722
H                -2.9364154896       -2.1968494284       -2.1948824555
H                -4.4416912506       -1.4323035184       -2.6813696757
H                -5.8627960176       -0.4559227917       -0.5398605726
H                -6.9862606330       -1.3344554954        1.4828711488
H                -6.1819147774       -3.4344881698        2.5499520539
H                -4.2423993692       -4.6458113676        1.5660647309
H                -3.1189226500       -3.7587343064       -0.4487448424
H                -2.6755686823        4.6247477308       -2.0238750585



