%chk=calculation/no_transfer_pubchem_sampling_6_b3lyp/2409907_rwf.chk
%rwf=calculation/no_transfer_pubchem_sampling_6_b3lyp/2409907_rwf.rwf
%nprocshared=14
%mem=3GB
#p b3lyp/6-31g(d) 6D 10F nosymm GFInput td=(50-50,nstate=2) SCF=XQC 

Gaussian input prepared by ASE

0 1
C                -5.1332429121       -3.9137846943        1.2780394192
C                -4.3763426345       -2.7424380938        0.6990067732
C                -3.5722200602       -1.9470480067        1.5227638270
C                -2.8586449843       -0.8566549892        1.0246195786
C                -2.9626518292       -0.5547302771       -0.3314996947
N                -2.2519727450        0.5704044446       -0.8703215111
C                -1.0141004804        0.5350526398       -1.4930502169
S                -0.1156989428       -0.9214818271       -1.9086373920
C                 0.5050060544       -1.4872889882       -0.2517794382
C                 1.0940697010       -0.3669873276        0.6060344616
O                 0.3832322650        0.0690254934        1.5111719332
C                 2.4315535696        0.1872813889        0.3830039812
C                 2.9264886662        1.2404639852        1.2222651454
C                 4.1717209449        1.5929619335        0.7887034628
C                 5.1198972437        2.6302670670        1.2989742913
N                 4.4671250522        0.7828706949       -0.3125211737
C                 5.7204625261        0.8250306994       -1.0482399830
C                 6.7471659024       -0.1129177722       -0.4824460749
C                 6.7655051022       -0.9716913113        0.5758866521
C                 8.0692596825       -1.5753876105        0.5806356343
C                 8.7406054762       -1.0385560852       -0.4717551587
O                 7.9483655197       -0.1415862803       -1.1345485791
C                 3.4252626518       -0.0828487540       -0.5658836894
C                 3.5215823727       -1.0382519191       -1.7158954068
N                -0.6201468779        1.7539010735       -1.7943038048
N                -1.5879962222        2.6167621573       -1.3672425289
C                -2.5577943199        1.9150787923       -0.8001436406
C                -3.7398119855        2.5426653952       -0.1877531055
C                -4.9750349185        1.8953101780       -0.0248588397
C                -6.0548072086        2.5716117831        0.5431394586
C                -5.9231928208        3.8989574764        0.9510716991
C                -4.7000168521        4.5531681741        0.7828534776
C                -3.6178132249        3.8837046739        0.2203907923
C                -3.7505112481       -1.3410865308       -1.1750787990
C                -4.4617740970       -2.4363671960       -0.6779514230
C                -5.3056780182       -3.2740662406       -1.6092634554
H                -4.8401436981       -4.8598844087        0.8048303067
H                -6.2158945853       -3.8104056920        1.1292523224
H                -4.9521005648       -4.0079815938        2.3527055741
H                -3.4975709015       -2.1878928548        2.5803053741
H                -2.2053643672       -0.2681967861        1.6598612742
H                -0.3203115990       -1.9277309895        0.3087058953
H                 1.2304810838       -2.2704608022       -0.4882146969
H                 2.3807128422        1.6755751697        2.0463577563
H                 4.6945304154        3.0952507583        2.1922769528
H                 5.3006092439        3.4312289132        0.5688220034
H                 6.0949597774        2.2073202286        1.5734218590
H                 6.0976566719        1.8534095606       -1.0311285475
H                 5.5282647985        0.5901011746       -2.1005507014
H                 5.9545582572       -1.1500864839        1.2675098675
H                 8.4464852619       -2.3097305741        1.2785908166
H                 9.7325992119       -1.1714284655       -0.8754807690
H                 4.4927469053       -1.5466896722       -1.7288633325
H                 2.7536871600       -1.8073905945       -1.6658209140
H                 3.3923058310       -0.5266686105       -2.6789419146
H                -5.1042844964        0.8703201996       -0.3506769803
H                -7.0046086377        2.0565709785        0.6603242587
H                -6.7670254135        4.4210894808        1.3942232307
H                -4.5870174931        5.5878512987        1.0952696825
H                -2.6647252212        4.3825801357        0.0835108917
H                -3.8071445872       -1.0898634785       -2.2305361998
H                -5.2601879951       -2.8935604744       -2.6337759159
H                -4.9716220909       -4.3194784945       -1.6263941052
H                -6.3594461582       -3.2851880695       -1.3023916607



