%chk=./calculation/no_transfer_pubchem_sampling_6_b3lyp/2409907.chk
%nprocshared=7
%mem=6GB
#p b3lyp/6-31g(d) opt SCF=XQC 

Gaussian input prepared by ASE

0 1
C                -5.2346108988       -3.1670156814        1.4135736546
C                -4.2058376079       -2.3002863916        0.7569248956
C                -3.4677736110       -1.3969243658        1.5101535248
C                -2.5044088272       -0.5939447664        0.9337059738
C                -2.2771894377       -0.6921040035       -0.4312223857
N                -1.2801977803        0.0947738553       -1.0410682053
C                -0.2419086683       -0.3372519922       -1.8224235846
S                 0.0305718445       -1.9920019055       -2.3048495960
C                 0.1859414504       -2.8505425528       -0.6890960064
C                 0.5143220087       -1.9833406512        0.5217466938
O                -0.1101836901       -2.1914133795        1.5459716860
C                 1.4733888689       -0.9110403949        0.3925602984
C                 1.3839549777        0.2579777047        1.2088739465
C                 2.3040050503        1.1516458335        0.7562675033
C                 2.6036078670        2.5303702419        1.2236463542
N                 2.9769256506        0.5680543226       -0.2901170442
C                 4.0134311735        1.2024432805       -1.0546424960
C                 5.3721716616        0.8733170793       -0.5135300308
C                 5.7564377786        0.2441661975        0.6330323884
C                 7.1744750146        0.2231405094        0.6129757966
C                 7.5407367820        0.8399458973       -0.5401612569
O                 6.4555578686        1.2370603423       -1.2310828836
C                 2.5018475227       -0.6797386530       -0.5166039705
C                 3.1315727342       -1.5564814780       -1.5364038141
N                 0.5252901823        0.6619098851       -2.1612156691
N                 0.0292369875        1.7649560420       -1.5965246473
C                -1.0438521777        1.4400492558       -0.9171618815
C                -1.8654600480        2.3826902232       -0.1786900868
C                -3.2517279527        2.2611390253       -0.1197479962
C                -3.9956735206        3.1881849516        0.5861061714
C                -3.3701410648        4.2412788312        1.2326758982
C                -1.9928105138        4.3755120785        1.1610143818
C                -1.2421117300        3.4542537816        0.4569542532
C                -3.0135293089       -1.5809440707       -1.2021221951
C                -3.9748117326       -2.3922174026       -0.6194150557
C                -4.7491309435       -3.3551879419       -1.4649087458
H                -4.9910568292       -4.2200681914        1.2764512674
H                -6.2179436743       -2.9957846390        0.9762311236
H                -5.2872099619       -2.9609937227        2.4791323341
H                -3.6382948797       -1.3286069360        2.5738555190
H                -1.9250295825        0.0908015485        1.5321096558
H                -0.7542134562       -3.3676221555       -0.4867625854
H                 0.9692468653       -3.5942554173       -0.8419982255
H                 0.6830227507        0.3927076365        2.0079680883
H                 2.0015937752        2.7500404730        2.1010568993
H                 2.3673905757        3.2613220145        0.4490961176
H                 3.6564092076        2.6338462971        1.4870455041
H                 3.8557152527        2.2853203984       -1.0330505347
H                 3.9399310378        0.8864994680       -2.0998433487
H                 5.1158719503       -0.1557727827        1.3923516269
H                 7.8210015792       -0.1946189582        1.3566603270
H                 8.4986584093        1.0522518119       -0.9706458116
H                 4.2165349994       -1.4734633639       -1.4838497123
H                 2.8610103175       -2.5945805540       -1.3731955631
H                 2.8057375620       -1.2703245417       -2.5370726984
H                -3.7498515074        1.4534921168       -0.6356263693
H                -5.0702751736        3.0888924976        0.6283408009
H                -3.9563820073        4.9598893597        1.7860164105
H                -1.5039175676        5.2012956057        1.6565460749
H                -0.1699750652        3.5421925713        0.3873331818
H                -2.8290246641       -1.6418699182       -2.2652342807
H                -4.4325320614       -3.2986172527       -2.5030480821
H                -4.6027238374       -4.3757002920       -1.1126630201
H                -5.8158099249       -3.1387027812       -1.4138215681



