%chk=./calculation/no_transfer_pubchem_sampling_6_b3lyp/24595723.chk
%nprocshared=7
%mem=6GB
#p b3lyp/6-31g(d) opt SCF=XQC 

Gaussian input prepared by ASE

0 1
O                -5.3174762190        0.8008051946       -0.6604286572
C                -4.1317137078        0.6099482212       -0.5052575056
C                -3.0703734245        1.0452459301       -1.4064215200
C                -3.3730348088        1.7579322207       -2.5683014616
C                -2.3607645592        2.1674806954       -3.4063815772
C                -1.0315415174        1.8786112485       -3.0962040016
C                -0.7117073487        1.1774830755       -1.9565941550
C                -1.7308257186        0.7480246069       -1.1009768152
N                -1.3982296542        0.0560111321        0.0303459068
C                -2.3369820795       -0.3205020229        0.8152269131
S                -1.8916586533       -1.1741391609        2.2874165815
C                -0.0833615751       -1.2149723965        2.0782054547
C                 0.5644183206        0.1188995492        2.4416514466
O                 0.4932041476        0.3887214861        3.8195009585
C                 2.0489918110        0.0940203051        2.0636656004
O                 2.1301440361       -0.0660499954        0.6690830863
C                 3.3559347583       -0.0694510851        0.0676633968
C                 4.5758653335        0.0928031735        0.7532124184
C                 5.7568908967        0.0803287798        0.0639120584
C                 5.7920376314       -0.0927540524       -1.3329202001
C                 6.9983944251       -0.1068677497       -2.0633019294
C                 6.9910941100       -0.2790998371       -3.4186423811
C                 5.7763869245       -0.4453564797       -4.1043754340
C                 4.5910616110       -0.4367113884       -3.4259166654
C                 4.5632566862       -0.2606055401       -2.0250313529
C                 3.3618434364       -0.2463545844       -1.2982533579
N                -3.6668511226       -0.0936585338        0.6215320328
C                -4.6317101217       -0.5724254846        1.5574729729
C                -5.3333478335        0.3329134242        2.3386264659
C                -6.2782400587       -0.1332125939        3.2346260074
C                -6.5180512352       -1.4920693125        3.3497941849
C                -5.8178867252       -2.3902763161        2.5623558778
C                -4.8756604947       -1.9345563582        1.6585280499
H                -4.4093838653        1.9725394525       -2.7812791656
H                -2.5931425756        2.7172833662       -4.3058431665
H                -0.2458863617        2.2118823432       -3.7584598805
H                 0.3082622727        0.9508544422       -1.6891439110
H                 0.2706069886       -2.0052107892        2.7400178132
H                 0.1206005007       -1.4524449130        1.0367052309
H                 0.0788554027        0.9147501182        1.8570326375
H                -0.4277518310        0.3062179755        4.0982296590
H                 2.5428142860       -0.7337702999        2.5903104022
H                 2.4997953192        1.0397639630        2.3890902720
H                 4.5844945966        0.2266168972        1.8235039232
H                 6.6894800179        0.2052324196        0.5955808966
H                 7.9294223403        0.0214958470       -1.5294171258
H                 7.9178807002       -0.2889974593       -3.9733153751
H                 5.7896745686       -0.5804653822       -5.1761835812
H                 3.6549295620       -0.5646796315       -3.9503613512
H                 2.4223426491       -0.3799267772       -1.8126189608
H                -5.1432405106        1.3902436545        2.2343868400
H                -6.8292506248        0.5682790877        3.8425204389
H                -7.2567650656       -1.8515109286        4.0502590357
H                -6.0101692800       -3.4492471350        2.6445456997
H                -4.3336763601       -2.6257424019        1.0306232696



