%chk=calculation/no_transfer_pubchem_sampling_6_b3lyp/25584201_rwf.chk
%rwf=calculation/no_transfer_pubchem_sampling_6_b3lyp/25584201_rwf.rwf
%nprocshared=14
%mem=3GB
#p b3lyp/6-31g(d) 6D 10F nosymm GFInput td=(50-50,nstate=2) SCF=XQC 

Gaussian input prepared by ASE

0 1
O                 0.0846366232       -2.3033174405        1.7528413029
C                -0.0159810233       -1.5446126082        0.7915061910
N                 1.0611202949       -1.1076195277        0.0696903967
C                 2.4394019372       -1.3379503056        0.5265355388
C                 3.3495437151       -1.7338640383       -0.6452712221
C                 3.7634472499       -0.4976416702       -1.4354579846
O                 4.4909086507        0.4287624993       -0.6254173428
C                 3.9813532600        0.6855975650        0.6201647561
C                 4.5094847661        1.8008748411        1.2853635667
C                 4.0615295604        2.1243387299        2.5609906742
C                 3.0864125452        1.3387358498        3.1880153810
C                 2.5741460719        0.2273938663        2.5250013752
C                 3.0081963696       -0.1177690258        1.2362452354
C                -1.3743070220       -1.1428736681        0.3135955247
C                -2.5052167780       -1.9199883646        0.4712812925
C                -3.5286707888       -1.2396739536       -0.2269722506
C                -4.9149342700       -1.6292205287       -0.3852240157
C                -5.9875627253       -1.0636793540       -1.0201549882
C                -7.0937290583       -1.9447280123       -0.8078818527
C                -6.6178725744       -2.9805113990       -0.0617254074
O                -5.2928524877       -2.8066210204        0.2056192603
N                -3.0730810333       -0.1033415182       -0.7687533752
N                -1.7593664299       -0.0483238517       -0.4382813489
C                -1.0309567672        1.1201807036       -0.8098801649
C                -0.2038302845        1.7703842539        0.1129514275
C                 0.5042635165        2.9069847159       -0.2800979719
C                 0.3644289760        3.4120294271       -1.5736812076
C                -0.4858899220        2.7731936829       -2.4802631169
C                -1.1804336921        1.6244302239       -2.1069931296
H                 0.9137072685       -0.3785135456       -0.6155743737
H                 2.3593791359       -2.1661620152        1.2337548149
H                 2.8389572584       -2.4501673695       -1.2975351268
H                 4.2515355247       -2.2184909261       -0.2525840489
H                 2.8837387475        0.0131796824       -1.8592461584
H                 4.4334626977       -0.7481930093       -2.2615671663
H                 5.2652004767        2.3938835843        0.7794470163
H                 4.4754840419        2.9907763798        3.0700410438
H                 2.7403342679        1.5859594462        4.1873515592
H                 1.8281735290       -0.4028651674        3.0037598712
H                -2.5595790631       -2.8595039274        0.9982356977
H                -5.9776626261       -0.1316765182       -1.5662780035
H                -8.1070551922       -1.8205564632       -1.1637267963
H                -7.0624356152       -3.8760294264        0.3445072049
H                -0.1175458421        1.3962050063        1.1273220734
H                 1.1572853719        3.3981987674        0.4349890620
H                 0.9113147957        4.3014673556       -1.8730795898
H                -0.6040157852        3.1652102577       -3.4865225692
H                -1.8444666715        1.1161098169       -2.7970400541



