%chk=./calculation/no_transfer_pubchem_sampling_6_b3lyp/25584201.chk
%nprocshared=7
%mem=6GB
#p b3lyp/6-31g(d) opt SCF=XQC 

Gaussian input prepared by ASE

0 1
O                 0.0979440930       -1.9120720457        2.2310503987
C                -0.0612962131       -1.4460647320        1.1223381724
N                 0.9573014629       -1.2145014992        0.2553966146
C                 2.3551095682       -1.3256660900        0.6403923916
C                 3.1950425256       -1.8041923905       -0.5422638906
C                 3.3777569033       -0.6549793883       -1.5293644339
O                 4.0463764830        0.4480205872       -0.9588229823
C                 3.6868571458        0.7938417053        0.3098581616
C                 4.1896012389        2.0013111068        0.7921296840
C                 3.8801723965        2.4233428386        2.0684016328
C                 3.0675577789        1.6478753185        2.8826105551
C                 2.5838957292        0.4424167441        2.4135140055
C                 2.8871233281        0.0006599321        1.1312571147
C                -1.3962142862       -1.1555295749        0.5506626905
C                -2.5295435543       -1.9372543401        0.5987658545
C                -3.4697308835       -1.2681662997       -0.2156576583
C                -4.8180689037       -1.6693361534       -0.5088195087
C                -5.7847361436       -1.0711108768       -1.2773700088
C                -6.9170044955       -1.9103166661       -1.2039687670
C                -6.5605956648       -2.9518621582       -0.4015617252
O                -5.2958961308       -2.8168665957        0.0231619090
N                -2.9413914475       -0.1570698394       -0.7147634866
N                -1.6961607743       -0.0888988228       -0.2503558764
C                -0.8984927236        1.0295250789       -0.5379130597
C                -0.0764240342        1.5858918408        0.4376470734
C                 0.7215487133        2.6691107494        0.1199285782
C                 0.6933280848        3.2070977091       -1.1563958170
C                -0.1525775188        2.6730462831       -2.1153603590
C                -0.9513415912        1.5862048275       -1.8116312612
H                 0.7624604671       -0.7533047353       -0.6197449720
H                 2.3773455754       -2.0533613352        1.4593194420
H                 2.7148775627       -2.6470851871       -1.0392109577
H                 4.1737132662       -2.1210437148       -0.1780756808
H                 2.4009143380       -0.3229031739       -1.9153051799
H                 3.9941073006       -0.9605253143       -2.3786024770
H                 4.8194899053        2.5879716883        0.1423677858
H                 4.2726130041        3.3620071837        2.4304441772
H                 2.8224863169        1.9784764054        3.8802060955
H                 1.9634492347       -0.1815499997        3.0398068902
H                -2.6618809487       -2.8589463358        1.1245476594
H                -5.6804063346       -0.1515236779       -1.8137082708
H                -7.8641618645       -1.7606081315       -1.6804264472
H                -7.0982178443       -3.8183635176       -0.0705354026
H                -0.0662549543        1.1762224216        1.4362817610
H                 1.3648970061        3.0930377376        0.8750378046
H                 1.3231748012        4.0489255054       -1.3993540699
H                -0.1873878728        3.1010387793       -3.1057968990
H                -1.6213590454        1.1570801532       -2.5401162604



