%chk=calculation/no_transfer_pubchem_sampling_6_b3lyp/25761744_rwf.chk
%rwf=calculation/no_transfer_pubchem_sampling_6_b3lyp/25761744_rwf.rwf
%nprocshared=14
%mem=3GB
#p b3lyp/6-31g(d) 6D 10F nosymm GFInput td=(50-50,nstate=2) SCF=XQC 

Gaussian input prepared by ASE

0 1
C                -3.2785819608        2.8475700026       -2.3701148320
C                -2.7637564122        1.9736584226       -1.2499581022
C                -1.8741820193        0.9247203851       -1.4858373552
C                -1.4154880959        0.1081916098       -0.4519895350
C                -1.8347113376        0.3241378784        0.8672542908
N                -1.4463227675       -0.4992461946        1.9463523434
C                -0.2771676308       -1.3835274381        1.9606105566
C                -0.4296266691       -2.6325005131        1.0873289278
C                 0.6923742572       -3.3613084097        0.6745421012
C                 0.5430000124       -4.5489136717       -0.0427997483
C                -0.7308213845       -5.0240578774       -0.3561709124
C                -1.8532461869       -4.3047584398        0.0572751121
C                -1.7045987443       -3.1190305333        0.7769566618
C                 1.0251664535       -0.6441264251        1.7764175388
N                 1.8163583258       -0.2351599423        2.7218086231
N                 2.8383550818        0.4771848456        2.1045267635
C                 2.5912615556        0.4462130558        0.8251152784
C                 3.3811436501        1.0552664595       -0.2383155311
C                 4.5666590180        1.7334468814        0.1033876234
C                 5.3530657138        2.3349322518       -0.8714851452
C                 4.9710657554        2.2723953932       -2.2156198774
C                 3.8018080098        1.6075833130       -2.5789986962
C                 3.0247669164        1.0106548803       -1.5933956527
F                 1.9004180202        0.3753948784       -1.9731011658
O                 1.4545306100       -0.2540115970        0.5442806491
C                -2.7393866909        1.3828529975        1.1331894437
C                -3.2300590035        1.6480690718        2.5373555670
C                -3.1765834758        2.1768518768        0.0733977754
H                -2.6876484340        2.7132021124       -3.2822659225
H                -4.3226918492        2.6147072877       -2.6199608148
H                -3.2432460151        3.9107684445       -2.1031483649
H                -1.5193661020        0.7348378568       -2.4963687332
H                -0.7200600524       -0.6877128683       -0.6831870404
H                -1.5498017181       -0.0351600590        2.8388302391
H                -0.2151422796       -1.7285910384        3.0002851240
H                 1.6914182548       -3.0070588646        0.9133884100
H                 1.4251262672       -5.1003252147       -0.3570261419
H                -0.8475648071       -5.9467534196       -0.9181756736
H                -2.8503504975       -4.6652610601       -0.1814981940
H                -2.5760122812       -2.5591902845        1.0993525809
H                 4.8469666706        1.7726069332        1.1505656582
H                 6.2634424857        2.8525332238       -0.5854230396
H                 5.5819558032        2.7408010458       -2.9817894017
H                 3.4749685274        1.5404620359       -3.6112730661
H                -3.9503827698        2.4710293369        2.5476276209
H                -3.7246509633        0.7683126281        2.9712580834
H                -2.4138987738        1.9293872305        3.2203245032
H                -3.8685014667        2.9889185117        0.2926004709



