%chk=calculation/no_transfer_pubchem_sampling_6_b3lyp/2582454_rwf.chk
%rwf=calculation/no_transfer_pubchem_sampling_6_b3lyp/2582454_rwf.rwf
%nprocshared=14
%mem=3GB
#p b3lyp/6-31g(d) 6D 10F nosymm GFInput td=(50-50,nstate=2) SCF=XQC 

Gaussian input prepared by ASE

0 1
O                 1.7638923081        2.2988951255        0.5104791246
C                 1.0331682463        1.3427510705        0.2595002034
N                 1.4603905119        0.0501115134        0.1472000127
C                 2.7591619079       -0.4755749003        0.3041110615
C                 3.8764119386        0.3095391750        0.6209284996
C                 5.1478571977       -0.2752332259        0.7609018885
C                 5.2569460129       -1.6370134229        0.5742495863
C                 4.1458007131       -2.4149642958        0.2596464962
C                 2.8878199845       -1.8737096664        0.1178309790
O                 4.5165329924       -3.7338169810        0.1549192164
C                 5.9488435358       -3.7327758735        0.2293747687
O                 6.3691684521       -2.4438173041        0.6830293259
C                -0.4625748095        1.5055858545        0.0413674453
N                -1.1149225851        0.3827844142       -0.0727566897
N                -2.4487600037        0.3587437062       -0.2771560544
C                -3.0221989776       -0.9623179129       -0.3118106350
C                -2.5714315566       -1.9142405907        0.6074453777
C                -3.0858755184       -3.2090611770        0.5700244256
C                -4.0530893339       -3.5539501533       -0.3754507576
C                -4.5012271955       -2.5956088950       -1.2860019563
C                -3.9902404709       -1.2983619257       -1.2625552399
C                -3.2582198614        1.5146597167       -0.3715379638
O                -4.4674043831        1.4346797080       -0.5395538318
C                -2.5190256323        2.7797573204       -0.2494079001
C                -3.2481817534        3.9748561127       -0.3423436726
C                -2.5952953137        5.1923281090       -0.2326950015
C                -1.2067622899        5.2232704195       -0.0283804435
C                -0.4712231209        4.0507487159        0.0690173343
C                -1.1198216016        2.8011235071       -0.0386352637
H                 0.7213837322       -0.6141922432       -0.0542921388
H                 3.7508679044        1.3737124281        0.7546688131
H                 6.0125744224        0.3301760691        1.0101383996
H                 2.0329501266       -2.4962304573       -0.1276822115
H                 6.2740723057       -4.4947490024        0.9430280167
H                 6.3647568649       -3.9266647281       -0.7698991995
H                -1.8253213653       -1.6349155842        1.3434308559
H                -2.7341793639       -3.9451584721        1.2875123068
H                -4.4568945263       -4.5621505016       -0.4006679541
H                -5.2528291813       -2.8559367725       -2.0258928852
H                -4.3429898499       -0.5550348782       -1.9649881151
H                -4.3190360020        3.9105769869       -0.5013061251
H                -3.1560373977        6.1199085418       -0.3055747209
H                -0.6957721267        6.1783939613        0.0568802322
H                 0.5967180635        4.0728755086        0.2329043902



