%chk=./calculation/no_transfer_pubchem_sampling_6_b3lyp/2582454.chk
%nprocshared=7
%mem=6GB
#p b3lyp/6-31g(d) opt SCF=XQC 

Gaussian input prepared by ASE

0 1
O                 1.7741417445        2.3345877024        0.4689474465
C                 1.0360867032        1.3990293469        0.2306394649
N                 1.4288090474        0.1035995669        0.1177863322
C                 2.6963747265       -0.4573727680        0.2602078041
C                 3.8289307693        0.3037753208        0.5271682692
C                 5.0812433615       -0.2877373299        0.6632253911
C                 5.1603055852       -1.6513870844        0.5242497925
C                 4.0247366792       -2.4190249885        0.2558471498
C                 2.7851285567       -1.8521007442        0.1191116594
O                 4.3772652896       -3.7387632087        0.1663765847
C                 5.7718464368       -3.7815009787        0.3855397188
O                 6.2536921638       -2.4752178485        0.6086623699
C                -0.4452282105        1.5426857974        0.0263401959
N                -1.0922870320        0.4252289941       -0.0842303116
N                -2.4059242871        0.3751612108       -0.2640211058
C                -2.9280763416       -0.9440257072       -0.3289326502
C                -2.3532593100       -1.9245458854        0.4726976324
C                -2.8245552821       -3.2221059898        0.4168303270
C                -3.8702680048       -3.5458594941       -0.4321243642
C                -4.4373948688       -2.5674747875       -1.2307689204
C                -3.9685095059       -1.2661199408       -1.1901534503
C                -3.2350926731        1.4969540591       -0.3109847530
O                -4.4402930650        1.3921951263       -0.4149031234
C                -2.5199136453        2.7702118979       -0.2080768401
C                -3.2564436786        3.9539496459       -0.2769260226
C                -2.6184071680        5.1699074916       -0.1846493572
C                -1.2353513335        5.2181763758       -0.0221485867
C                -0.4916026013        4.0615755795        0.0506830483
C                -1.1216911826        2.8143502609       -0.0376586731
H                 0.6707421130       -0.5430773716       -0.0739090462
H                 3.7301137310        1.3705592208        0.6312135577
H                 5.9571120521        0.3029362773        0.8700116906
H                 1.9152445090       -2.4534424386       -0.0893453384
H                 5.9865382967       -4.4098101259        1.2650543957
H                 6.2696019614       -4.2131727725       -0.4978145059
H                -1.5470756018       -1.6575132870        1.1393179377
H                -2.3784701762       -3.9802922337        1.0428835333
H                -4.2419882571       -4.5586597197       -0.4699084433
H                -5.2492579454       -2.8170160890       -1.8969081620
H                -4.4110014240       -0.5090768357       -1.8156503627
H                -4.3258442045        3.8801850826       -0.4041272170
H                -3.1873640367        6.0859126330       -0.2385502097
H                -0.7396836907        6.1750382082        0.0482470942
H                 0.5770728002        4.0992768314        0.1807500480



