%chk=./calculation/no_transfer_pubchem_sampling_6_b3lyp/271391.chk
%nprocshared=7
%mem=6GB
#p b3lyp/6-31g(d) opt SCF=XQC 

Gaussian input prepared by ASE

0 1
C                 3.2236222329       -2.9432937254        3.2561173834
C                 2.8704118741       -2.0118116690        2.1388450576
C                 3.0810549616       -2.3878679501        0.8155483089
C                 2.7787165474       -1.5233800832       -0.2210640629
C                 2.2626863715       -0.2771812276        0.0741116919
S                 1.8346192413        0.8381736491       -1.2521001313
O                 2.6135463858        0.5092142496       -2.4073488244
O                 1.8581794891        2.1830360291       -0.7613026753
N                 0.2375321921        0.4225716828       -1.5639727433
C                -0.8482965417        1.1918621861       -1.1173606153
C                -0.8581255147        2.5042122245       -1.4291915429
C                -1.7743933511        3.5445877580       -0.9806115278
C                -1.2146587091        4.7106931827       -0.4509885380
C                -2.0219685565        5.7378371953       -0.0055949228
C                -3.4008006524        5.6328196070       -0.1106267619
C                -3.9622737898        4.4973739215       -0.6682010082
C                -3.1591030527        3.4570903007       -1.1020870526
C                -1.8107150850        0.5519305061       -0.1978574482
O                -2.9662888806        0.8985826039       -0.0709841982
C                -1.2475608648       -0.5061051414        0.6951407478
C                -1.4672207723       -0.3339201329        2.0587334533
C                -1.0488539889       -1.2844823522        2.9688389520
C                -0.4319542923       -2.4390327538        2.5153469362
C                -0.2316051415       -2.6295412783        1.1626557122
C                -0.6252848803       -1.6690407690        0.2318814141
C                -0.3966112934       -1.9158275934       -1.1969753172
C                -0.5656991088       -3.1902181643       -1.7351763117
C                -0.2784641999       -3.4463260732       -3.0620365952
C                 0.1926360418       -2.4310879972       -3.8789667280
C                 0.3451202037       -1.1541768173       -3.3707650126
C                 0.0408166979       -0.8913726706       -2.0422386053
C                 2.0399779989        0.1185863932        1.3775861429
C                 2.3491973181       -0.7500644584        2.4080579295
H                 2.6394496129       -2.7222323849        4.1455445526
H                 4.2782285506       -2.8328349009        3.5091125287
H                 3.0568661089       -3.9780046439        2.9666903319
H                 3.4881906868       -3.3642672116        0.5973927359
H                 2.9456214019       -1.7899442429       -1.2527296044
H                -0.0006583728        2.8638792120       -1.9844678806
H                -0.1395535516        4.7831587332       -0.3711143207
H                -1.5777264150        6.6265265062        0.4188933486
H                -4.0325296352        6.4393515136        0.2320395682
H                -5.0349040637        4.4190613300       -0.7674426189
H                -3.6028605907        2.5853009011       -1.5523384880
H                -1.9756195990        0.5595983759        2.3896114620
H                -1.2158468404       -1.1330767842        4.0245451837
H                -0.1133553832       -3.1958677815        3.2164524305
H                 0.2542798258       -3.5285402142        0.8145716732
H                -0.9397370543       -3.9820881613       -1.1033101195
H                -0.4183932034       -4.4406474284       -3.4589945221
H                 0.4304932944       -2.6308778554       -4.9124963011
H                 0.7134322755       -0.3481762775       -3.9843574616
H                 1.6418304974        1.1035174798        1.5635850037
H                 2.1845555744       -0.4476777974        3.4313973911



