%chk=./calculation/no_transfer_pubchem_sampling_6_b3lyp/3747276.chk
%nprocshared=7
%mem=6GB
#p b3lyp/6-31g(d) opt SCF=XQC 

Gaussian input prepared by ASE

0 1
O                 3.0973355436       -2.1515411267       -0.6811256699
C                 1.7802590007       -1.8327282316       -1.0516465842
C                 1.0014795437       -1.1474687026        0.0976366009
C                 1.1242960459        0.3843369732        0.0528729949
C                 2.5650972325        0.7947698735        0.1653017692
C                 3.2778442387        1.2044167635       -0.9558837713
C                 4.6171044202        1.5420220244       -0.8564947344
C                 5.2610975662        1.4754402830        0.3669465210
C                 4.5576890812        1.0781305661        1.4921608207
C                 3.2202307535        0.7406899533        1.3913132598
N                -0.3827631845       -1.6133670535        0.1623458620
C                -1.5031929135       -0.8077624562        0.0955195413
C                -1.7865120752       -0.0383994646       -1.0534934204
C                -1.0604374593       -0.1518204315       -2.2619489989
C                -1.3541287694        0.6356422234       -3.3359321065
C                -2.3875468706        1.5895864958       -3.2597660861
C                -3.1495497827        1.6883919708       -2.1359551701
C                -2.9015170015        0.8568651739       -1.0141894971
N                -3.7305153443        0.9372350813        0.0207686835
C                -3.5491726466        0.1190891864        1.0517494282
C                -4.4924255938        0.1773743222        2.1090939426
C                -4.3535114037       -0.6019960378        3.2159900118
C                -3.2561106002       -1.4751767228        3.3321494607
C                -2.3305323835       -1.5617063086        2.3340005244
C                -2.4420918643       -0.7848389224        1.1561931342
H                 3.5833346044       -1.3327064816       -0.5224019364
H                 1.3017692647       -2.7869800044       -1.2866121683
H                 1.7804168480       -1.2062798644       -1.9523748243
H                 1.4958067395       -1.4871777887        1.0200116776
H                 0.7016597712        0.7674464140       -0.8760557807
H                 0.5500424887        0.8005960486        0.8853214199
H                 2.7781891330        1.2679402192       -1.9122710047
H                 5.1569063569        1.8603550149       -1.7359221304
H                 6.3049890592        1.7389592680        0.4452831577
H                 5.0521425555        1.0340859721        2.4511138915
H                 2.6740510930        0.4390660030        2.2737437442
H                -0.4838148866       -2.3383828721        0.8579967034
H                -0.3018837014       -0.9146874868       -2.3328422307
H                -0.8033812985        0.5241275744       -4.2586684113
H                -2.5874686248        2.2195795871       -4.1143485111
H                -3.9756691035        2.3782508237       -2.0657814955
H                -5.3210350526        0.8574666883        1.9900573226
H                -5.0780832124       -0.5558632934        4.0157132641
H                -3.1502341777       -2.0783968026        4.2219582725
H                -1.5001623898       -2.2445814520        2.4584735239



