%chk=calculation/no_transfer_pubchem_sampling_6_b3lyp/3747276_rwf.chk
%rwf=calculation/no_transfer_pubchem_sampling_6_b3lyp/3747276_rwf.rwf
%nprocshared=14
%mem=3GB
#p b3lyp/6-31g(d) 6D 10F nosymm GFInput td=(50-50,nstate=2) SCF=XQC 

Gaussian input prepared by ASE

0 1
O                 3.0191919603       -2.3254505663        0.4681550012
C                 1.8731250943       -2.3264666782       -0.3613794287
C                 0.8881251426       -1.1785257681       -0.0574746963
C                 1.3337392277        0.1703099621       -0.6641472200
C                 2.6438890877        0.6991446819       -0.1148107899
C                 3.8230826846        0.6401381288       -0.8733915809
C                 5.0329398900        1.1199859802       -0.3625319900
C                 5.0811468545        1.6733149968        0.9168034185
C                 3.9127646530        1.7462712874        1.6797583446
C                 2.7086450352        1.2648417777        1.1682238461
N                -0.4353903006       -1.5885622221       -0.5986320097
C                -1.5519728064       -0.7401325555       -0.3147743284
C                -2.0266899449        0.1324956595       -1.3154731601
C                -1.4840381439        0.1712980081       -2.6370957987
C                -1.9732078473        1.0490769012       -3.5685958441
C                -3.0345500572        1.9417230003       -3.2377255047
C                -3.6006445624        1.9159452512       -1.9912304978
C                -3.1333894467        1.0038555491       -0.9928619596
N                -3.7579593660        0.9958651603        0.1953000002
C                -3.3367289840        0.1246809864        1.1259202588
C                -4.0287469155        0.0992731376        2.3775902822
C                -3.6480160894       -0.7569505843        3.3761711463
C                -2.5459263983       -1.6386926805        3.1863679152
C                -1.8531068707       -1.6441615829        2.0030671347
C                -2.2209839872       -0.7736269153        0.9299677128
H                 3.5359902415       -1.5299116608        0.2626670378
H                 1.3772775952       -3.2859173469       -0.1673930755
H                 2.1322882771       -2.3128643550       -1.4326822215
H                 0.8530890160       -1.0663262360        1.0390073925
H                 1.4076526569        0.0534375557       -1.7515983238
H                 0.5471287247        0.9110184692       -0.4819810874
H                 3.7905639691        0.2242350289       -1.8783696028
H                 5.9331059993        1.0660623223       -0.9691029047
H                 6.0192823993        2.0492121328        1.3155825847
H                 3.9394889807        2.1814536223        2.6752463476
H                 1.8038765900        1.3305872844        1.7682349951
H                -0.6348223895       -2.5199861433       -0.2376381199
H                -0.6947779680       -0.5298110127       -2.8826078376
H                -1.5592536571        1.0615180981       -4.5732767590
H                -3.4028094810        2.6345626934       -3.9897482743
H                -4.4224606175        2.5698862604       -1.7171746306
H                -4.8639442782        0.7830288982        2.4921007306
H                -4.1840742360       -0.7680036877        4.3213206961
H                -2.2515637247       -2.3088995613        3.9892403092
H                -1.0113350071       -2.3189302774        1.8809734922



