%chk=./calculation/no_transfer_pubchem_sampling_6_b3lyp/3930306.chk
%nprocshared=7
%mem=6GB
#p b3lyp/6-31g(d) opt SCF=XQC 

Gaussian input prepared by ASE

0 1
C                 0.6644584986        5.1918109020        1.1724140446
O                -0.2799046310        4.1516290664        1.3082555138
C                -0.1170775311        3.0317200208        0.5583698805
C                -1.0178048664        1.9933281646        0.8036896880
C                -0.9475604200        0.8207057364        0.0834715911
C                 0.0085078342        0.6595205293       -0.9127544804
C                 0.1134944975       -0.6459885488       -1.6823421019
C                -1.2409507944       -1.1960134402       -2.0475988718
C                -2.0384234040       -0.4929809655       -2.9687906024
C                -3.2814936894       -0.9364267532       -3.3134270029
C                -3.8024231820       -2.1206876433       -2.7505070534
C                -5.0814084631       -2.6118689140       -3.0831307919
C                -5.5573827608       -3.7638610036       -2.5215764174
C                -4.7763410168       -4.4780834211       -1.6007705027
C                -3.5314974894       -4.0305157429       -1.2544723218
C                -3.0171623737       -2.8462559991       -1.8190045255
C                -1.7281831134       -2.3512569819       -1.4834806814
O                -1.0257879533       -3.1075053755       -0.5701173186
C                 0.2295395492       -2.7433220699       -0.2718066497
N                 0.8366139173       -3.5735102191        0.6036162204
C                 2.0402967415       -3.3204594108        0.9950206767
N                 2.7213780919       -2.2552138576        0.5408011702
N                 3.9278580920       -1.7939368829        0.8800724234
C                 4.0461103406       -0.6856270412        0.1639944476
C                 5.1961463000        0.2254583287        0.3244317589
S                 4.6692089844        1.9683229451        0.5763760343
C                 3.3476840778        1.8459720750        1.6830782951
N                 2.8230071308        2.8665126022        2.2772737004
C                 1.7752399999        2.3460151568        3.0062787090
C                 0.8455910112        2.9429680945        3.8449144234
C                -0.1084343451        2.1210394164        4.4112590638
C                -0.1443742824        0.7499509859        4.1644593578
C                 0.7849175982        0.1336994396        3.3447265231
C                 1.7367603682        0.9568417924        2.7819938952
O                 2.7642453864        0.6503001114        1.9394497194
N                 3.0069293805       -0.4140063167       -0.6405515383
C                 2.1490969715       -1.3865921223       -0.3864199486
C                 0.8405664437       -1.6265962505       -0.8089222256
C                 0.9096876270        1.6855132487       -1.1460549414
C                 0.8578202663        2.8615919049       -0.4193512478
H                 0.6505750978        5.6141928507        0.1626011539
H                 1.6727401353        4.8440645940        1.4169351581
H                 0.3578296734        5.9573230655        1.8834780597
H                -1.7600567530        2.1295591616        1.5739784345
H                -1.6490238010        0.0252090938        0.2929932851
H                 0.7035228821       -0.4598928408       -2.5883452785
H                -1.6396458189        0.4166445292       -3.3925845331
H                -3.8836512169       -0.3863333262       -4.0209730437
H                -5.6784435218       -2.0576840829       -3.7929189328
H                -6.5383613109       -4.1323260593       -2.7832908019
H                -5.1665845478       -5.3865199398       -1.1665038243
H                -2.9225684487       -4.5719658728       -0.5475649147
H                 2.5183480052       -3.9680572394        1.7140959255
H                 5.8008120198        0.2703881707       -0.5813528831
H                 5.8043622959       -0.0905571891        1.1707769190
H                 0.8706917148        4.0028295635        4.0326599703
H                -0.8534747220        2.5515211506        5.0633534130
H                -0.9153973431        0.1509432178        4.6244893812
H                 0.7679629994       -0.9272236699        3.1507376182
H                 1.6758555158        1.5638779142       -1.8963497387
H                 1.5855593520        3.6318133474       -0.6185472810



