%chk=calculation/no_transfer_pubchem_sampling_6_b3lyp/4001212_rwf.chk
%rwf=calculation/no_transfer_pubchem_sampling_6_b3lyp/4001212_rwf.rwf
%nprocshared=14
%mem=3GB
#p b3lyp/6-31g(d) 6D 10F nosymm GFInput td=(50-50,nstate=2) SCF=XQC 

Gaussian input prepared by ASE

0 1
C                10.1901064282        2.2844157385        0.4117421248
C                 9.9777850332        1.0578740161       -0.4964364969
C                10.0723194807        1.4476459040       -1.9841903385
C                 8.6733166156        0.3407427070       -0.1817592088
C                 7.4288744805        0.9758249369       -0.3436228575
C                 6.2398607727        0.3199876737       -0.0557158059
C                 6.2387911713       -1.0102572946        0.4104451260
C                 5.0240461627       -1.7540994073        0.7306300729
C                 3.7434256118       -1.3413630835        0.6302107020
C                 2.6376447468       -2.2471341077        1.0236450327
O                 2.8636617397       -3.3506925749        1.5195507584
C                 1.2193424395       -1.7979491507        0.8265601271
C                 0.2060151111       -2.5579054987        1.4340156503
C                -1.1292728035       -2.2072122864        1.2930789893
C                -1.4716529489       -1.0898715010        0.5268138678
O                -2.8341331707       -0.8639642635        0.3776554567
C                -3.3669038262        0.4032144595        0.3651766355
O                -2.7101905782        1.4116337782        0.4985020503
C                -4.8385935686        0.3653612815        0.1758994090
C                -5.5298370609        1.5857803666        0.1643344090
C                -6.9066693503        1.6095009008       -0.0111675273
C                -7.6495636118        0.4259051802       -0.1830588985
C                -9.1741758205        0.4993436433       -0.3750583324
C                -9.8128369623       -0.8916481663       -0.5491106554
C                -9.4914589348        1.3375797114       -1.6368874488
C                -9.8138114400        1.1730680921        0.8628681828
C                -6.9421385072       -0.7853697608       -0.1693082259
C                -5.5595882527       -0.8218051566        0.0075413770
C                -0.4890024873       -0.3267762594       -0.1055513560
C                 0.8481918074       -0.6855589157        0.0560599192
C                 7.4836721688       -1.6428897619        0.5724722624
C                 8.6735735239       -0.9801059534        0.2817081187
H                11.1621036908        2.7492148076        0.2086666111
H                 9.4170212024        3.0436210088        0.2439679035
H                10.1594819773        2.0046825580        1.4703023495
H                10.7919791676        0.3502229601       -0.2893233178
H                 9.9577938660        0.5719421543       -2.6321158171
H                 9.2940836250        2.1700438114       -2.2574762747
H                11.0436899667        1.9080726085       -2.1998086265
H                 7.3906658470        2.0019682968       -0.7006007954
H                 5.2993961640        0.8459361800       -0.1925169891
H                 5.1688200115       -2.7699106292        1.0967403749
H                 3.5030096194       -0.3418767929        0.2844502438
H                 0.4957805034       -3.4257365537        2.0165981016
H                -1.9183865452       -2.7848933884        1.7640581394
H                -4.9688005654        2.5053883972        0.2949850662
H                -7.4132318396        2.5701993853       -0.0146697205
H                -9.4223925841       -1.4136277146       -1.4300757946
H               -10.8950259297       -0.7847578284       -0.6825118889
H                -9.6505464823       -1.5288250689        0.3276200398
H               -10.5761631992        1.4043444025       -1.7837979275
H                -9.0548384722        0.8805074136       -2.5321188932
H                -9.1027860768        2.3581538233       -1.5588446025
H               -10.9013592026        1.2387590535        0.7382032328
H                -9.6102272185        0.5970751972        1.7726709959
H                -9.4345228451        2.1883505952        1.0179092286
H                -7.4676618674       -1.7246416513       -0.2976397634
H                -5.0398304760       -1.7732151912        0.0141671583
H                -0.7608099530        0.5331300499       -0.7024206082
H                 1.5991822933       -0.0908710796       -0.4529948506
H                 7.5122385109       -2.6688554305        0.9316672146
H                 9.6205398421       -1.4976776223        0.4175880902



