%chk=./calculation/no_transfer_pubchem_sampling_6_b3lyp/4001212.chk
%nprocshared=7
%mem=6GB
#p b3lyp/6-31g(d) opt SCF=XQC 

Gaussian input prepared by ASE

0 1
C                 9.8153425331        2.3799188393        0.6571441429
C                 9.6769703713        1.2720306415       -0.3896272529
C                 9.6572351038        1.8595356259       -1.8027475550
C                 8.4403625843        0.4483708273       -0.1363489490
C                 7.1712496486        1.0197311040       -0.1736543667
C                 6.0416604868        0.2645834791        0.0576270083
C                 6.1374583824       -1.1021108043        0.3379597342
C                 4.9870660457       -1.9405876131        0.5892783861
C                 3.6933056649       -1.5812218831        0.5812751032
C                 2.6479266557       -2.5669596883        0.8787465940
O                 2.8972884894       -3.6945010092        1.2690588671
C                 1.2410084337       -2.1092181381        0.7093308519
C                 0.2626688444       -2.6604687380        1.5358600901
C                -1.0540488864       -2.2699664265        1.4236408254
C                -1.4153534137       -1.3340367942        0.4590039260
O                -2.7606671613       -1.0301144373        0.3720635191
C                -3.1893205208        0.2200958147        0.0878161482
O                -2.4596522610        1.1690676509       -0.0563033522
C                -4.6632741691        0.2796010583        0.0030650547
C                -5.2660098091        1.5180780613       -0.2094801831
C                -6.6373670562        1.6183569171       -0.2974099274
C                -7.4574690894        0.4955787158       -0.1791390412
C                -8.9646890904        0.6583731546       -0.2832905428
C                -9.7160786685       -0.6669892466       -0.1319890741
C                -9.3074462807        1.2492929068       -1.6584366431
C                -9.4401145717        1.6080660748        0.8256591723
C                -6.8430749453       -0.7352787227        0.0311092546
C                -5.4684432196       -0.8481237900        0.1219955889
C                -0.4594398412       -0.8065586906       -0.3990363857
C                 0.8621445634       -1.1885869506       -0.2632168676
C                 7.4131013084       -1.6724674009        0.3748493955
C                 8.5393261643       -0.9101606308        0.1421656593
H                10.7434959178        2.9261008651        0.5043487488
H                 8.9890303024        3.0829762773        0.5892500420
H                 9.8236981333        1.9559618896        1.6589696416
H                10.5488204540        0.6135234406       -0.3063112428
H                 9.5567637245        1.0671950240       -2.5413995393
H                 8.8256456117        2.5490516104       -1.9241849918
H                10.5813173850        2.3993055609       -1.9972578167
H                 7.0634049707        2.0729574906       -0.3868408229
H                 5.0734966782        0.7399401660        0.0226060631
H                 5.1997767536       -2.9822808219        0.8031122196
H                 3.3771187619       -0.5685175204        0.3886374259
H                 0.5599476741       -3.3922030332        2.2718679737
H                -1.8163853822       -2.6797585107        2.0678926824
H                -4.6373290743        2.3908655940       -0.3018637560
H                -7.0740201943        2.5915911523       -0.4615338921
H                -9.4338284683       -1.3695721247       -0.9126074664
H               -10.7858462759       -0.4866621123       -0.2150375037
H                -9.5272093651       -1.1164620451        0.8400904978
H               -10.3851389768        1.3573531113       -1.7592623578
H                -8.9509614340        0.5928784625       -2.4495156823
H                -8.8536109641        2.2265009150       -1.7962978251
H               -10.5207239544        1.7237332494        0.7790622294
H                -9.1777801209        1.2071317805        1.8024799627
H                -8.9886371318        2.5912536928        0.7286266186
H                -7.4335800431       -1.6314965603        0.1276237660
H                -5.0158517911       -1.8141631076        0.2838969189
H                -0.7450322157       -0.1002444773       -1.1616820620
H                 1.5936961663       -0.7878129334       -0.9486911389
H                 7.5136684240       -2.7267056216        0.5897800026
H                 9.5143891389       -1.3757723211        0.1769941239



