%chk=./calculation/no_transfer_pubchem_sampling_6_b3lyp/40919896.chk
%nprocshared=7
%mem=6GB
#p b3lyp/6-31g(d) opt SCF=XQC 

Gaussian input prepared by ASE

0 1
O                 0.3871952806       -0.6660511403       -3.0439475738
C                 0.3900263711       -0.8040441542       -1.8593166100
C                 1.2244734902       -0.0686137157       -0.7868470804
C                 2.2391079847        0.8854131004       -1.3298514104
C                 1.7998766011        1.8732644114       -2.2081222026
C                 2.6888404357        2.7791001516       -2.7531309366
C                 4.0333054553        2.7156157702       -2.4286038318
C                 4.4784220356        1.7382579578       -1.5571820997
C                 3.5896636959        0.8273859285       -1.0127875690
C                 0.0017164143        0.5785322109       -0.1630674010
C                -0.0192186264        1.9579999326        0.3084685133
C                 1.0903954586        2.5099460055        0.9491194287
C                 1.0668542566        3.8204093004        1.3853161139
C                -0.0559900541        4.6052487984        1.1825870688
C                -1.1584691611        4.0704163919        0.5365114748
C                -1.1419506356        2.7599866834        0.1005433069
C                -1.0375793339       -0.2862788385       -0.2524340229
C                -2.4073954420       -0.1080750405        0.2220611530
C                -3.4908278742       -0.3097854676       -0.6309789185
C                -4.7833412276       -0.1594354214       -0.1648430233
C                -5.0139780565        0.1894366770        1.1552156417
C                -3.9426832528        0.4001741949        2.0074958377
C                -2.6486241735        0.2543929513        1.5462161846
C                -0.5363192282       -1.5625498274       -0.9112892135
C                -1.5713169282       -2.5203769031       -1.4135728169
C                -2.3894887904       -3.1658384924       -0.4894451384
C                -3.3604525530       -4.0543185228       -0.9101484186
C                -3.5251686783       -4.3155198939       -2.2601541716
C                -2.7107392461       -3.6842502314       -3.1832536816
C                -1.7384886420       -2.7911762139       -2.7653041719
C                 0.4744329152       -2.2135054759        0.0667359287
C                 1.7105134294       -1.2905727540        0.0424448672
C                 2.2497685925       -1.0006280283        1.4161624268
C                 3.5458916625       -1.3831502748        1.7455217478
C                 4.0631392124       -1.1380610238        3.0048675452
C                 3.2882716680       -0.5078169751        3.9627052511
C                 1.9901448111       -0.1403927990        3.6542246283
C                 1.4741293798       -0.3916003461        2.3957241955
H                 0.7530699700        1.9294389929       -2.4672896270
H                 2.3307974715        3.5377510132       -3.4334130187
H                 4.7296895404        3.4242192833       -2.8522365669
H                 5.5253943510        1.6817186085       -1.2960154868
H                 3.9579152883        0.0830232665       -0.3255109144
H                 1.9680200153        1.9052913150        1.1187827295
H                 1.9320821311        4.2315742249        1.8843129644
H                -0.0705000984        5.6305727779        1.5214523813
H                -2.0342309991        4.6793840635        0.3659688261
H                -1.9971962195        2.3545560465       -0.4191547611
H                -3.3159622884       -0.5650445111       -1.6653219210
H                -5.6142786440       -0.3160403062       -0.8367816271
H                -6.0249370939        0.3012757049        1.5179602108
H                -4.1160125367        0.6775324229        3.0369979055
H                -1.8160055291        0.4204969278        2.2144012524
H                -2.2710707202       -2.9640520552        0.5651431994
H                -3.9911687165       -4.5433406570       -0.1821402601
H                -4.2847739719       -5.0090258051       -2.5898412162
H                -2.8316015585       -3.8852563231       -4.2377313510
H                -1.1130666369       -2.3006869055       -3.4937499175
H                 0.7227589764       -3.2200366949       -0.2714449736
H                 0.0510480440       -2.2864865815        1.0685140917
H                 2.5013148198       -1.7692829279       -0.5455427756
H                 4.1585779863       -1.8880298018        1.0104854122
H                 5.0731416044       -1.4417879879        3.2382943541
H                 3.6910290696       -0.3111933837        4.9451053664
H                 1.3731365685        0.3437949956        4.3971487937
H                 0.4586909297       -0.1039046287        2.1739659083



