%chk=./calculation/no_transfer_pubchem_sampling_6_b3lyp/41192990.chk
%nprocshared=7
%mem=6GB
#p b3lyp/6-31g(d) opt SCF=XQC 

Gaussian input prepared by ASE

0 1
O                 0.3761088740       -4.7418612309        0.3743267404
S                 0.4806565293       -3.6929117665       -0.5936027919
O                 0.9084685211       -4.0188200425       -1.9231249642
N                -1.0499137020       -3.0127405860       -0.7266417120
C                -1.1553750736       -2.0131937171       -1.7714916372
C                -2.1261296759       -0.9006925772       -1.4201747195
C                -3.5060733566       -1.3113926439       -1.1078121590
C                -4.0563599911       -2.4918850025       -0.6993863466
C                -5.4339764014       -2.2329378707       -0.4905321001
C                -5.6191905501       -0.9181866852       -0.7786357216
O                -4.4595059232       -0.3461841654       -1.1543257414
S                -1.4195298138       -0.0530052668        0.0813562289
O                -1.4801575072       -0.9666612399        1.1956546712
O                -0.1289962965        0.4664919377       -0.2845510161
C                -2.5442913504        1.3100867128        0.4030710286
C                -3.5505414112        1.1452655043        1.3345675393
C                -4.4539416231        2.1751791906        1.5370421840
C                -4.3382090540        3.3480089991        0.8071343073
C                -3.3190517944        3.5026091147       -0.1200611590
C                -2.4145457796        2.4746908016       -0.3282184443
C                 1.4707963601       -2.3589335753        0.0508117966
C                 2.2543213783       -1.6084095752       -0.8023165755
C                 2.9257498168       -0.5010757716       -0.3197418161
C                 2.8026919189       -0.1547914111        1.0239192315
O                 3.3742923828        0.9543170879        1.5658455277
C                 4.5209154254        1.4904983723        1.0299351881
C                 4.6385322792        2.8761093296        1.0351694723
C                 5.8014903094        3.4703708913        0.5822095897
C                 6.8504017152        2.6919029688        0.1219040373
C                 6.7355811638        1.3119950023        0.1282513028
C                 5.5787447195        0.7058181039        0.5831677671
C                 2.0107003643       -0.9257282365        1.8764752705
C                 1.3390270238       -2.0250592696        1.3857172982
H                -1.3146805140       -2.6552936979        0.1835338132
H                -0.1761371839       -1.5508642464       -1.9560042711
H                -1.4670961544       -2.5278470922       -2.6873012748
H                -2.1157443979       -0.1212986063       -2.1833268110
H                -3.5419785975       -3.4219716612       -0.5792895632
H                -6.1759596636       -2.9347114889       -0.1706805768
H                -6.4880173017       -0.2911613191       -0.7643702968
H                -3.6046197214        0.2199976849        1.8862978860
H                -5.2466638227        2.0622827654        2.2606978545
H                -5.0450205138        4.1490171888        0.9642375574
H                -3.2310229890        4.4207432875       -0.6805350792
H                -1.6025548751        2.5648426560       -1.0325016101
H                 2.3341001443       -1.9058063315       -1.8365703571
H                 3.5189778120        0.1092725317       -0.9839364700
H                 3.8121098180        3.4662791690        1.3989621442
H                 5.8873126078        4.5467280563        0.5863701759
H                 7.7562030174        3.1579486329       -0.2349240660
H                 7.5545364707        0.6989548064       -0.2173686067
H                 5.4947736988       -0.3709224607        0.6038699430
H                 1.9223357713       -0.6307486224        2.9098471234
H                 0.7164549171       -2.6343156358        2.0206172084



