%chk=calculation/no_transfer_pubchem_sampling_6_b3lyp/41192990_rwf.chk
%rwf=calculation/no_transfer_pubchem_sampling_6_b3lyp/41192990_rwf.rwf
%nprocshared=14
%mem=3GB
#p b3lyp/6-31g(d) 6D 10F nosymm GFInput td=(50-50,nstate=2) SCF=XQC 

Gaussian input prepared by ASE

0 1
O                 0.1537927293       -3.8051712561        1.1095539527
S                 0.4127811988       -2.8328451741        0.0473385769
O                 0.5827478382       -3.2204786990       -1.3557005416
N                -0.9061292144       -1.7896662168        0.0841185685
C                -0.9944206822       -0.7263806106       -0.9174749699
C                -2.3992502558       -0.0951945926       -0.9646427966
C                -3.5274328292       -1.0252000564       -1.2098139314
C                -3.8537189159       -2.2908861577       -0.8079767357
C                -5.1167918550       -2.5944276345       -1.4091294988
C                -5.4715675999       -1.4937512394       -2.1277733222
O                -4.5212751367       -0.5262485069       -2.0203695000
S                -2.5981497859        0.9193917808        0.6056458736
O                -2.4924666454       -0.0141676838        1.7501854597
O                -1.6630702649        2.0533567373        0.4834403244
C                -4.2749698143        1.5616880944        0.5745279804
C                -5.3021236525        0.8215131313        1.1637870418
C                -6.5987569253        1.3342995389        1.1356019842
C                -6.8521900483        2.5678739429        0.5305452917
C                -5.8117459920        3.3008579589       -0.0455903205
C                -4.5102522154        2.8000529505       -0.0260963489
C                 1.8567098418       -1.8835145432        0.5213549530
C                 2.6580303039       -1.2995935345       -0.4613484742
C                 3.7645494479       -0.5348927636       -0.0951609369
C                 4.0622559954       -0.3639445735        1.2614833674
O                 5.1056667799        0.3941658623        1.7254039608
C                 6.1241219837        0.7958692552        0.8686223447
C                 6.2964216996        2.1617429973        0.6521907005
C                 7.3661950114        2.5978674489       -0.1317031496
C                 8.2484290192        1.6749031435       -0.6963893322
C                 8.0635278722        0.3086558058       -0.4697795645
C                 7.0027830091       -0.1391312846        0.3180287885
C                 3.2598177642       -0.9560244279        2.2470642801
C                 2.1575664326       -1.7147527540        1.8783971043
H                -1.1385863642       -1.4911122706        1.0325108602
H                -0.2606642675        0.0758444473       -0.7521192810
H                -0.7995604612       -1.1771976615       -1.8937247219
H                -2.3967760780        0.6751063179       -1.7425383808
H                -3.2538956817       -2.9244932674       -0.1729385658
H                -5.6766693394       -3.5148219849       -1.3199566551
H                -6.3194158686       -1.2488085558       -2.7493356510
H                -5.0811909307       -0.1266539318        1.6411115082
H                -7.4091593302        0.7732544555        1.5918198667
H                -7.8641540006        2.9631705767        0.5141901937
H                -6.0114623950        4.2653012545       -0.5035012294
H                -3.6843175659        3.3630280158       -0.4480813265
H                 2.4270650565       -1.4607248133       -1.5089907012
H                 4.3896588304       -0.0802003716       -0.8549058025
H                 5.5998923596        2.8612444875        1.1033979853
H                 7.5068929251        3.6617867766       -0.3010204779
H                 9.0788394322        2.0177755753       -1.3068321940
H                 8.7516308117       -0.4136547205       -0.9001870981
H                 6.8552495401       -1.1968529244        0.5131659863
H                 3.5220444727       -0.8128501816        3.2901209694
H                 1.5434917608       -2.1951091632        2.6330405857



