%chk=./calculation/no_transfer_pubchem_sampling_6_b3lyp/41386580.chk
%nprocshared=7
%mem=6GB
#p b3lyp/6-31g(d) opt SCF=XQC 

Gaussian input prepared by ASE

0 1
C                -4.2601998036        1.6014998699        2.6746876961
C                -3.5994326200        0.5980442891        1.7794381652
C                -3.5226407411        0.8032662442        0.4096073053
C                -2.9314167884       -0.1313810801       -0.4227831163
C                -2.3965883027       -1.3028527387        0.0930378516
C                -1.6976780787       -2.3454551994       -0.7496096775
C                -1.9652022456       -2.2328215756       -2.2468091046
C                -1.3686153306       -1.0033526903       -2.9089390300
O                -1.8172716339       -0.5974058713       -3.9634489653
C                -0.2314639471       -0.3827912021       -2.2215917044
C                 0.3469721896        0.8367663751       -2.6431700115
C                -0.1441291183        1.6033772592       -3.8191845406
N                 1.3689962630        1.3620134981       -1.9957134803
C                 1.8454712203        0.7168154902       -0.9233406884
N                 2.8962354553        1.3339809897       -0.3382642127
C                 3.6660871158        0.9902463785        0.7662551097
C                 4.7187135127        1.8400522458        1.1087329514
C                 5.5231391554        1.5547226760        2.1942114674
C                 5.2915908408        0.4201689308        2.9545170928
C                 4.2470798556       -0.4240462042        2.6174702465
C                 3.4346159141       -0.1489280444        1.5330802284
N                 1.3598585966       -0.4265175424       -0.4414860132
C                 0.3394627085       -0.9678534614       -1.0813403221
C                -0.1821446816       -2.2547570184       -0.5312447342
C                -2.4814634633       -1.5115749323        1.4660884198
C                -3.0709868127       -0.5787059460        2.2956650676
H                -5.3170287262        1.3579200605        2.7904562647
H                -3.8048300445        1.5989228215        3.6624783528
H                -4.1895674018        2.6022322627        2.2549042598
H                -3.9309531957        1.7084409676       -0.0172426165
H                -2.8999848604        0.0682898349       -1.4827095555
H                -2.0370379841       -3.3315855021       -0.4093859850
H                -1.5208641452       -3.0976136424       -2.7519624837
H                -3.0354318229       -2.2514519882       -2.4639384996
H                 0.4276357347        2.5222149761       -3.9147140357
H                -0.0430898468        1.0040473044       -4.7219219625
H                -1.2028362683        1.8284277500       -3.7073011344
H                 3.1568303038        2.1902421996       -0.8117140197
H                 4.9023196831        2.7261907051        0.5169435167
H                 6.3346131749        2.2209306756        2.4474176015
H                 5.9210189731        0.1974648297        3.8027016775
H                 4.0603108378       -1.3101360819        3.2060842336
H                 2.6213666983       -0.8018375924        1.2667821248
H                 0.0778849476       -2.3155343912        0.5259260108
H                 0.3141469260       -3.0825418096       -1.0480882971
H                -2.0806790658       -2.4218990815        1.8903567645
H                -3.1228131778       -0.7652350388        3.3590617823



