%chk=./calculation/no_transfer_pubchem_sampling_6_b3lyp/4366335.chk
%nprocshared=7
%mem=6GB
#p b3lyp/6-31g(d) opt SCF=XQC 

Gaussian input prepared by ASE

0 1
C                -1.1916929717        1.6108915982       -2.4127205174
C                -1.8573214536        0.9565869779       -1.2395935946
C                -3.0270122778        0.2869459476       -1.3869605778
C                -3.6951245277       -0.3475347099       -0.2844797957
C                -4.8858021898       -1.0383627270       -0.4124594037
C                -5.4829886904       -1.6312588024        0.6972190370
C                -4.8779398645       -1.5292206735        1.9440552592
C                -3.6918969326       -0.8486347942        2.1036201573
C                -3.0651903914       -0.2356104636        0.9923985550
C                -1.8754875843        0.4639656130        1.0901772336
N                -1.2757649344        1.0716660933       -0.0044463997
C                 0.0253157668        1.6574027235        0.1983243898
C                 1.1440097512        0.6112497214        0.1030056083
C                 2.5205233231        1.2393480182        0.3410242418
C                 3.5952576587        0.1949870237        0.2369248813
C                 4.2023942763       -0.0762486243       -0.9823834208
C                 5.1652981327       -1.0639722760       -1.0873030998
C                 5.5318726006       -1.7970000475        0.0282863412
C                 4.9304860377       -1.5364896491        1.2477634054
C                 3.9680940458       -0.5481484574        1.3495326201
H                -1.7600616989        1.3994696726       -3.3138452399
H                -1.1508626995        2.6930880040       -2.2857467010
H                -0.1772945279        1.2413710519       -2.5546316268
H                -3.4808908466        0.2206395814       -2.3634976269
H                -5.3533818674       -1.1150869722       -1.3842653656
H                -6.4133396641       -2.1677097340        0.5875425459
H                -5.3465202595       -1.9912030970        2.8021167320
H                -3.2250418626       -0.7713860386        3.0746989610
H                -1.3663635033        0.5846361595        2.0311888370
H                 0.0440996603        2.1104007905        1.1947619420
H                 0.1972141439        2.4508606755       -0.5305626795
H                 0.9651985271       -0.1713619385        0.8432120533
H                 1.1250234433        0.1393062160       -0.8816981977
H                 2.6912865773        2.0243123568       -0.3993600455
H                 2.5396545916        1.6965295207        1.3326969101
H                 3.9221034891        0.4954676407       -1.8562130042
H                 5.6316701600       -1.2614243577       -2.0415582900
H                 6.2844656636       -2.5672977017       -0.0520349789
H                 5.2129745575       -2.1043012113        2.1222557868
H                 3.5030333413       -0.3468731106        2.3043300675



