%chk=calculation/no_transfer_pubchem_sampling_6_b3lyp/44111243_rwf.chk
%rwf=calculation/no_transfer_pubchem_sampling_6_b3lyp/44111243_rwf.rwf
%nprocshared=14
%mem=3GB
#p b3lyp/6-31g(d) 6D 10F nosymm GFInput td=(50-50,nstate=2) SCF=XQC 

Gaussian input prepared by ASE

0 1
C                -7.0200526024       -4.2214057899       -2.4349393406
O                -6.2339112941       -3.0974508976       -2.8031265460
C                -5.2734148285       -2.6675383550       -1.9386889944
C                -4.5494902650       -1.5376559111       -2.3481216741
C                -3.5489214808       -1.0201886181       -1.5359616983
C                -3.2548700384       -1.6246162560       -0.3098290782
N                -2.1852148392       -1.0829014936        0.4987592946
C                -2.5047178217       -0.3019193856        1.6121475848
S                -4.0529946747       -0.1471974434        2.2368536106
N                -1.4463096504        0.3125903149        2.1912591043
C                -0.1889051543        0.6100760802        1.5095977561
C                -0.2227524637        1.9268977776        0.7199556547
C                -1.4066250326        2.4159116960        0.1443750561
C                -1.3788405163        3.6021622001       -0.5842649454
C                -0.1937809290        4.3221047247       -0.7563208396
C                 0.9834470780        3.8391883237       -0.1739098191
O                 2.1995807735        4.4541567859       -0.2567178956
C                 2.2909970482        5.6664580851       -0.9872194554
C                 0.9615318506        2.6474311475        0.5639472018
C                 0.1564637591       -0.5985334400        0.6483165276
C                 1.5772118002       -0.8233558635        0.4664966956
N                 2.5362817041       -0.2559591757        1.1595625687
C                 3.6803205766       -0.7836703822        0.6065237279
C                 5.0308992220       -0.4396710243        1.0745517999
C                 6.1643217309       -0.9807685899        0.4472355217
C                 7.4374809285       -0.6481283149        0.9009877397
C                 7.5937475192        0.2248880364        1.9815886409
C                 6.4687288731        0.7642538941        2.6076369939
C                 5.1909567213        0.4347903230        2.1581206465
N                 3.4658642417       -1.6297964691       -0.3777442067
O                 2.0634443953       -1.6545466549       -0.4840767651
C                -0.8476172015       -1.3727537064        0.1490799613
C                -0.6604115156       -2.5762047549       -0.7376916524
C                -3.9712932506       -2.7468860703        0.0980327246
C                -4.9801482667       -3.2729370250       -0.7090016265
H                -7.5799074807       -4.0349327003       -1.5094499152
H                -6.4034267251       -5.1211982782       -2.3102897358
H                -7.7213422918       -4.3763344726       -3.2565846844
H                -4.7937433069       -1.0804933748       -3.3014372742
H                -2.9941543278       -0.1387572842       -1.8450018277
H                -1.7025231162        0.8977319306        2.9764251586
H                 0.5792475334        0.6998012207        2.2816627343
H                -2.3494123412        1.8978156481        0.2833846043
H                -2.2972273360        3.9830411056       -1.0233852945
H                -0.2020195227        5.2441555426       -1.3260155489
H                 3.3363339669        5.9745499957       -0.9255651266
H                 1.6561284707        6.4500180044       -0.5523555008
H                 2.0169404987        5.5252728952       -2.0412259204
H                 1.8886277555        2.2938454982        1.0026977377
H                 6.0363729548       -1.6570435859       -0.3919408571
H                 8.3105851818       -1.0699088293        0.4106817288
H                 8.5891648249        0.4828452385        2.3331361101
H                 6.5850070310        1.4429278265        3.4481727278
H                 4.3102852651        0.8464788801        2.6393618275
H                -1.3252024052       -3.3858790564       -0.4267007046
H                -0.9084523897       -2.3387373409       -1.7786716534
H                 0.3685510720       -2.9254997433       -0.7125769875
H                -3.7512941259       -3.2038622955        1.0570478136
H                -5.5295445824       -4.1426625928       -0.3687806855



