%chk=./calculation/no_transfer_pubchem_sampling_6_b3lyp/44111243.chk
%nprocshared=7
%mem=6GB
#p b3lyp/6-31g(d) opt SCF=XQC 

Gaussian input prepared by ASE

0 1
C                -7.2981619599       -4.3202274640       -2.1471379735
O                -6.3487387186       -3.4384019308       -2.6987570589
C                -5.3854639391       -2.9291283243       -1.8909990180
C                -4.5047233965       -2.0257919343       -2.4914237048
C                -3.4934839288       -1.4440732873       -1.7601750767
C                -3.3380585833       -1.7635663230       -0.4164984204
N                -2.3037956803       -1.1345868980        0.3409125537
C                -2.6767505507       -0.1893058920        1.2652061527
S                -4.2621124367        0.1495922554        1.5772382713
N                -1.7020378336        0.4222352635        1.9590954831
C                -0.3181077400        0.5029933577        1.5369658933
C                -0.0305845339        1.7766495142        0.7658086022
C                -0.7963040647        2.1153414066       -0.3448437551
C                -0.4965530844        3.2590682075       -1.0576643185
C                 0.5640405217        4.0714023126       -0.6902852812
C                 1.3321328942        3.7387067771        0.4199244157
O                 2.3943102076        4.4532925753        0.8805056817
C                 2.7771373190        5.6148974426        0.1853094995
C                 1.0170676928        2.5910948846        1.1474362257
C                 0.0029476569       -0.6983518584        0.6767836133
C                 1.4011815006       -0.8977461156        0.4700076673
N                 2.3415496312       -0.1649478170        1.0099748672
C                 3.4884252269       -0.6894898243        0.4983209205
C                 4.8049356520       -0.1672890969        0.8103120230
C                 5.9486785768       -0.8620984191        0.4232287927
C                 7.1965986455       -0.3509160477        0.7232393396
C                 7.3120956789        0.8511176559        1.4047030067
C                 6.1752317973        1.5457531631        1.7857284874
C                 4.9226910382        1.0410321631        1.4922324556
N                 3.2693301208       -1.6974661077       -0.3098415288
O                 1.9138325764       -1.8452907220       -0.3417244514
C                -0.9781032590       -1.4479911153        0.1152175098
C                -0.7009100200       -2.6427216489       -0.7375227039
C                -4.2027335684       -2.6629864732        0.1847428174
C                -5.2236810908       -3.2444316960       -0.5446813691
H                -7.8632523009       -3.8459748068       -1.3389804011
H                -6.8276600766       -5.2362322929       -1.7756904713
H                -7.9754542470       -4.5696226421       -2.9622270890
H                -4.6451985957       -1.7884125161       -3.5335676905
H                -2.8230697344       -0.7362596572       -2.2244914953
H                -2.0244964733        1.1428386064        2.5893345174
H                 0.3197539720        0.4834656223        2.4290184097
H                -1.6260307574        1.4930640563       -0.6455935770
H                -1.0918218697        3.5267027827       -1.9180849518
H                 0.7775645131        4.9530101241       -1.2735297288
H                 3.6393181940        6.0083308520        0.7213886184
H                 1.9795604728        6.3650153598        0.1845130108
H                 3.0660227188        5.3891706378       -0.8462118355
H                 1.6211717889        2.3421222404        2.0043776116
H                 5.8380907058       -1.7949168048       -0.1073511668
H                 8.0845311297       -0.8893792377        0.4258804133
H                 8.2900529838        1.2468769748        1.6373216122
H                 6.2663909965        2.4842382131        2.3126278983
H                 4.0274548340        1.5726570291        1.7736648732
H                -1.5802262379       -3.2759495388       -0.8174477476
H                -0.4015813390       -2.3343370352       -1.7386477688
H                 0.1200908104       -3.2188964375       -0.3188005730
H                -4.0850643020       -2.8998795327        1.2309556281
H                -5.8880285338       -3.9340019806       -0.0497947158



