%chk=./calculation/no_transfer_pubchem_sampling_6_b3lyp/4912439.chk
%nprocshared=7
%mem=6GB
#p b3lyp/6-31g(d) opt SCF=XQC 

Gaussian input prepared by ASE

0 1
C                -0.4838872238        1.9247345243        2.2570266580
C                 0.6838169041        1.3941146516        1.5049090190
C                 1.9653618617        1.1714119136        1.9213005479
C                 2.6296627228        1.3599085458        3.2346658408
N                 2.6446977354        0.6918556010        0.8226482764
C                 3.8672223996        0.2440634617        0.3559562929
C                 5.1409456705        0.0759319687        0.9649065964
O                 5.4485458944        0.3072493239        2.1207596451
N                 6.0797443661       -0.4188026165        0.0431118238
C                 7.4327363017       -0.6402650674        0.5248751883
C                 5.8782369831       -0.7281040395       -1.2895334612
O                 6.7815032470       -1.1510386701       -1.9813996001
N                 4.6090842267       -0.5351272938       -1.7944961393
C                 4.3263605608       -0.8358705820       -3.1797383694
C                 3.6247654770       -0.0576489256       -0.9884996701
N                 2.3464801210        0.1748766637       -1.3611651635
C                 1.7901480283        0.6257601038       -0.2410082160
N                 0.5826263540        1.0686953534        0.1539531280
C                -0.6101362801        1.0623856769       -0.6494080033
C                -1.3387459406       -0.2836213874       -0.5573629547
C                -2.7787851070       -0.1577552729       -1.0699727487
C                -3.5034789182       -1.4774917503       -1.2170312688
C                -3.0921861303       -2.6502462279       -0.5998485930
C                -3.8245858514       -3.8171123009       -0.7460942229
C                -4.9800897718       -3.8280410600       -1.5053740032
C                -5.4019408634       -2.6617149938       -2.1216903554
C                -4.6690799239       -1.4994465507       -1.9767294384
C                -3.5721120731        0.7334615684       -0.1381960806
C                -3.9535798267        2.0118223352       -0.5221741954
C                -4.6478382628        2.8333194894        0.3497093252
C                -4.9698439011        2.3844414770        1.6183242038
C                -4.6016097845        1.1071930930        2.0073433809
C                -3.9087447647        0.2881606736        1.1347861925
H                -0.7982653473        2.8890091612        1.8564797560
H                -1.3344542231        1.2462514908        2.1995624474
H                -0.2163405463        2.0589389158        3.3003827230
H                 3.4494084896        2.0707626398        3.1425626867
H                 3.0624647718        0.4207216626        3.5754492662
H                 1.9222513619        1.7215589564        3.9744591044
H                 7.7009356398       -1.6901752205        0.4094082414
H                 8.1346292484       -0.0367254440       -0.0500297845
H                 7.4546074605       -0.3547527866        1.5742001571
H                 3.9849940365        0.0651112380       -3.6891240314
H                 5.2448868251       -1.2037040079       -3.6325657373
H                 3.5430534808       -1.5912443518       -3.2388681680
H                -1.2635071859        1.8664672054       -0.3024378673
H                -0.3139735329        1.2593659175       -1.6823468708
H                -0.7932599274       -1.0253784016       -1.1425454373
H                -1.3451977246       -0.6040028434        0.4862061441
H                -2.7435829488        0.3166065624       -2.0576093037
H                -2.1938046297       -2.6710551870       -0.0023197784
H                -3.4878423226       -4.7218985984       -0.2612192931
H                -5.5490259777       -4.7389323714       -1.6171558093
H                -6.3033958389       -2.6586501028       -2.7166194669
H                -5.0036011125       -0.5904455070       -2.4567289394
H                -3.7064857359        2.3692018829       -1.5124694555
H                -4.9372972998        3.8257889629        0.0366483384
H                -5.5100367973        3.0244699457        2.2997568041
H                -4.8567878262        0.7479026397        2.9935335221
H                -3.6356655685       -0.7122880447        1.4388371167



