%chk=./calculation/no_transfer_pubchem_sampling_6_b3lyp/50868103.chk
%nprocshared=7
%mem=6GB
#p b3lyp/6-31g(d) opt SCF=XQC 

Gaussian input prepared by ASE

0 1
C                -6.4923807526        0.3055903530        2.9051366067
C                -5.5959575120        0.7765122283        1.7672627762
C                -5.3169737542       -0.3634511201        0.7792728482
N                -4.3837933238        0.0108582426       -0.2652502511
C                -3.0525072321        0.0646351550        0.0081123839
C                -2.5419603851       -0.2741291936        1.2754641905
C                -1.2003850643       -0.2260519223        1.5603907070
C                -0.2669450045        0.1765569754        0.5973754928
C                 1.1477538567        0.2520446601        0.8166262661
C                 1.8656957173        0.0351702355        1.9472920641
C                 1.3468324632       -0.3109528405        3.2049629342
N                 0.9916479026       -0.6322635597        4.2500868476
C                 3.3562259282        0.2342823059        1.9553088737
O                 3.9228840658        0.8719537588        2.8140867783
N                 3.9627665229       -0.3740464208        0.8940408450
C                 5.3182922173       -0.3887748396        0.5435898812
C                 6.2872396175        0.3059160107        1.2551220268
C                 7.6154416755        0.2522839844        0.8561763892
C                 8.6540847609        1.0188176561        1.6171466834
C                 7.9638899459       -0.4973234340       -0.2581399556
C                 7.0063067697       -1.1973319943       -0.9806639055
C                 7.3943256413       -1.9868271535       -2.1950122254
C                 5.6841963261       -1.1371629281       -0.5727847715
C                -0.7679178827        0.5251424771       -0.6640663535
C                -2.1128877895        0.4808206166       -0.9723402256
C                -2.6074186640        0.8718784799       -2.2860626348
C                -1.6590746798        1.4267719277       -3.3049417100
C                -3.9032346208        0.7370057722       -2.5542167728
C                -4.9309166294        0.1810544960       -1.6113608490
C                -6.1133188741        1.1658308596       -1.5998694172
C                -5.3844445116       -1.1857988831       -2.1674125390
H                -7.4423156183       -0.0603018663        2.5205479234
H                -6.6933959607        1.1228352722        3.5927190325
H                -6.0164950006       -0.4990713137        3.4613813401
H                -4.6543398581        1.1510734131        2.1704175132
H                -6.0770824223        1.6009525229        1.2394744140
H                -4.9365401523       -1.2366153757        1.3191707261
H                -6.2571154084       -0.6675956686        0.3210577715
H                -3.1981677178       -0.5923043843        2.0664784961
H                -0.8673482467       -0.5055116243        2.5460125027
H                 1.7147108947        0.5583951016       -0.0579604474
H                 3.3707720919       -0.9272844710        0.2888444380
H                 6.0038479472        0.8798407837        2.1211046643
H                 8.3879090749        1.0870213153        2.6688894351
H                 9.6303067828        0.5482427667        1.5261853736
H                 8.7290521701        2.0328754454        1.2232165058
H                 8.9980166763       -0.5414162568       -0.5691606249
H                 7.3973388917       -1.3409635344       -3.0738362108
H                 6.6924037940       -2.7979800066       -2.3741506717
H                 8.3925698286       -2.4030187906       -2.0818367667
H                 4.9275988254       -1.6807682860       -1.1237202955
H                -0.0673363118        0.8442148842       -1.4206908102
H                -0.9092788618        0.6840939651       -3.5745166491
H                -1.1480962751        2.3052936987       -2.9141939126
H                -2.1984329535        1.7113967594       -4.2046994815
H                -4.2938344533        1.0194499932       -3.5211292068
H                -6.4566918214        1.3267349463       -2.6186583275
H                -5.7925820387        2.1214554454       -1.1913291284
H                -6.9545994756        0.7974038298       -1.0202832730
H                -6.2187662126       -1.5967232520       -1.6049635485
H                -4.5556986024       -1.8893462812       -2.1262218568
H                -5.6938793165       -1.0765199367       -3.2034819090



