%chk=calculation/no_transfer_pubchem_sampling_6_b3lyp/50868103_rwf.chk
%rwf=calculation/no_transfer_pubchem_sampling_6_b3lyp/50868103_rwf.rwf
%nprocshared=14
%mem=3GB
#p b3lyp/6-31g(d) 6D 10F nosymm GFInput td=(50-50,nstate=2) SCF=XQC 

Gaussian input prepared by ASE

0 1
C                -6.6862495337        0.5561120817        2.8653342838
C                -5.7081799455        0.9462596999        1.7525203557
C                -5.4009678596       -0.2363132777        0.8189923631
N                -4.4231723559        0.0633653439       -0.2348218379
C                -3.0802951902        0.0561318527        0.0684907524
C                -2.6122614307       -0.2361676935        1.3747774120
C                -1.2649848359       -0.2425643429        1.6890496497
C                -0.2846817429        0.0539076013        0.7191100123
C                 1.1443168236        0.0727927163        0.9391325249
C                 1.9073872279       -0.1056003758        2.0604054847
C                 1.3604936822       -0.3163653885        3.3626523807
N                 0.9088661250       -0.5097074740        4.4188481371
C                 3.4096403521        0.0264759842        2.0452801335
O                 4.0127504086        0.4951744567        3.0009687166
N                 4.0095122463       -0.4215433132        0.8864732286
C                 5.3731067619       -0.3776506375        0.5203286211
C                 6.3593612222        0.2386786389        1.2959022222
C                 7.6896156769        0.2470880973        0.8519416540
C                 8.7518198387        0.9089361923        1.7003462369
C                 8.0166675062       -0.3604641891       -0.3613359310
C                 7.0382003557       -0.9834866440       -1.1501508290
C                 7.4096279115       -1.6327083696       -2.4637113195
C                 5.7210133184       -0.9848437069       -0.6990082725
C                -0.7536821715        0.3578966840       -0.5778436043
C                -2.0986890946        0.3681510594       -0.9248120832
C                -2.5511013823        0.7149619469       -2.2768449134
C                -1.5524625855        1.1763999558       -3.3085413845
C                -3.8546008031        0.6189185208       -2.5702224910
C                -4.9353631934        0.1355252230       -1.6337437486
C                -6.1132064306        1.1344560215       -1.7249001433
C                -5.3967666705       -1.2679300998       -2.1078097641
H                -7.6389708854        0.1982581958        2.4552068223
H                -6.9047702020        1.4108865621        3.5137688473
H                -6.2769448468       -0.2422099669        3.4965184194
H                -4.7763267865        1.3234354124        2.1888524704
H                -6.1233638276        1.7686779712        1.1578786778
H                -5.0583860741       -1.1000517348        1.4024045764
H                -6.3271866806       -0.5602555224        0.3403811318
H                -3.3106867462       -0.4645688671        2.1682743056
H                -0.9765503725       -0.4824518209        2.7048400113
H                 1.7109952614        0.3027814665        0.0375028035
H                 3.4180817256       -0.9466284505        0.2578684333
H                 6.0875602607        0.6945546477        2.2381941299
H                 8.8440123545        0.4164013839        2.6762109287
H                 9.7317338061        0.8753368665        1.2138431300
H                 8.5077293263        1.9601885852        1.8954018608
H                 9.0502837391       -0.3531925300       -0.7017665941
H                 7.7993574406       -0.8955407031       -3.1770604540
H                 6.5479216995       -2.1221209699       -2.9289106425
H                 8.1909564465       -2.3902835717       -2.3272473974
H                 4.9486463223       -1.4633353746       -1.2998919731
H                -0.0210290545        0.6007189791       -1.3421152351
H                -0.8047877524        0.4011709948       -3.5204948572
H                -1.0060219179        2.0658498401       -2.9705720470
H                -2.0523249498        1.4235386674       -4.2493906069
H                -4.2035826130        0.8694998210       -3.5698664850
H                -6.4437621309        1.2127735645       -2.7663748980
H                -5.8009138019        2.1282136269       -1.3901860850
H                -6.9784862619        0.8193917840       -1.1333513231
H                -6.2368039363       -1.6478518523       -1.5155070964
H                -4.5694948516       -1.9807518054       -2.0379350383
H                -5.7226019220       -1.2234507635       -3.1532836623



