%chk=calculation/no_transfer_pubchem_sampling_6_b3lyp/50901306_rwf.chk
%rwf=calculation/no_transfer_pubchem_sampling_6_b3lyp/50901306_rwf.rwf
%nprocshared=14
%mem=3GB
#p b3lyp/6-31g(d) 6D 10F nosymm GFInput td=(50-50,nstate=2) SCF=XQC 

Gaussian input prepared by ASE

0 1
C                 5.7242694324        2.1572858361       -0.3953984423
C                 5.4558617033        0.7141416190       -0.1007570425
N                 4.1795922108        0.2933535879        0.2409131379
C                 4.2769027477       -1.0044560255        0.4279760722
S                 2.9581132924       -2.0943821218        0.9066824047
C                 1.5833147387       -0.8844352359        0.8792601857
C                 1.1022855037       -0.5015266931       -0.5253645557
C                 0.0119356613        0.6005788726       -0.4795963281
N                -1.2591148972       -0.1039746762       -0.4467889320
C                -1.2659761641       -1.3837493454       -0.9132825283
N                -2.4490815731       -1.9375692469       -0.8850432532
C                -3.2888977742       -0.9533667638       -0.3748027364
C                -4.7285099641       -1.2343038251       -0.2383161498
C                -5.1550274315       -2.5661315815       -0.0921006132
C                -6.5091180123       -2.8720031366        0.0238904901
C                -7.4675700168       -1.8565588996       -0.0074165589
C                -7.0568574071       -0.5316524296       -0.1674431900
C                -5.7029515958       -0.2224524542       -0.2877626038
C                -2.5680462319        0.2045637521       -0.0785482849
C                -2.9139633540        1.4810627349        0.5668729739
C                -3.6632264431        1.4992273023        1.7575840473
C                -3.9757601455        2.7035804922        2.3836792420
C                -3.5361414470        3.9152620511        1.8440572718
C                -2.7883035418        3.9124193138        0.6659928622
C                -2.4845456145        2.7083184796        0.0304235673
S                 0.3317773807       -1.9436797969       -1.4251445125
N                 5.5464274060       -1.4682938611        0.2153607528
C                 6.0139051083       -2.8341436808        0.3790822225
C                 6.3225651383       -0.3527745491       -0.1170616827
C                 7.7827783679       -0.4563004648       -0.4126387170
H                 5.4443546507        2.7900153449        0.4554565353
H                 5.1403552278        2.5009609396       -1.2582872730
H                 6.7816686683        2.3350563228       -0.6142975165
H                 0.7808043678       -1.3460087109        1.4616969397
H                 1.9379152062        0.0117144122        1.3965229769
H                 1.9556188758       -0.1536742639       -1.1077874529
H                 0.1259838208        1.2378296688        0.4021805665
H                 0.0733809879        1.2349488087       -1.3725897177
H                -4.4073180222       -3.3521297338       -0.0782119312
H                -6.8171944769       -3.9082192836        0.1392141997
H                -8.5239049754       -2.0957503599        0.0835358391
H                -7.7940792695        0.2661293632       -0.2117543002
H                -5.4012583653        0.8089857901       -0.4371793873
H                -3.9952012984        0.5592711119        2.1871015881
H                -4.5555873241        2.6952813433        3.3028337557
H                -3.7760895294        4.8531615895        2.3374170605
H                -2.4485884430        4.8494690100        0.2326656297
H                -1.9291707663        2.7202035189       -0.9035882136
H                 5.2064681627       -3.5289264263        0.1340799127
H                 6.8455784924       -3.0207344926       -0.3037358263
H                 6.3473046716       -3.0268555599        1.4057713297
H                 8.3539522453       -0.8640586658        0.4322829080
H                 8.1866839575        0.5358032825       -0.6305121307
H                 7.9916840575       -1.0905132633       -1.2853185911



