%chk=calculation/no_transfer_pubchem_sampling_6_b3lyp/51703090_rwf.chk
%rwf=calculation/no_transfer_pubchem_sampling_6_b3lyp/51703090_rwf.rwf
%nprocshared=14
%mem=3GB
#p b3lyp/6-31g(d) 6D 10F nosymm GFInput td=(50-50,nstate=2) SCF=XQC 

Gaussian input prepared by ASE

0 1
C                -2.5079885783        0.0507294551        1.1960752720
C                -2.8795496997        0.4226977975       -0.2175645946
C                -4.1353363775        0.9550327937       -0.5315999418
C                -4.4848300713        1.2856831422       -1.8415120832
C                -3.5748831870        1.0717025109       -2.8756727193
C                -2.3196502155        0.5280088744       -2.6010130347
C                -1.9876919102        0.2271162434       -1.2816463401
O                -0.7557440199       -0.3647423837       -0.9416434497
S                 0.6504136192        0.1810452582       -1.6508007311
O                 0.7069484761        1.6363398827       -1.5252056122
O                 0.7743113177       -0.4333694876       -2.9713709924
C                 1.7845292988       -0.6267511776       -0.5219938902
C                 2.4482400493       -1.7228867006       -1.0320295047
C                 3.3600121244       -2.4372431530       -0.2245926344
C                 3.5788052496       -2.0420086886        1.0736052362
C                 2.9133916256       -0.9143122882        1.6242671813
C                 3.1505290828       -0.5122191056        2.9660228581
C                 2.5146366274        0.5844972014        3.4981008795
C                 1.6165749031        1.3305282831        2.7005340888
C                 1.3595792157        0.9721989323        1.3950020917
C                 1.9907846271       -0.1637936953        0.8174847686
H                -2.3220079696       -1.0258774517        1.2898166492
H                -3.3123592676        0.3179186411        1.8878746922
H                -1.5919618443        0.5548160325        1.5223043400
H                -4.8480221911        1.1145324952        0.2740558311
H                -5.4650882251        1.7040813759       -2.0515906983
H                -3.8374648945        1.3170821330       -3.9006944192
H                -1.6100494303        0.3350926239       -3.3974541057
H                 2.2604332911       -2.0294509950       -2.0545764947
H                 3.8779332395       -3.2977591917       -0.6366647575
H                 4.2743290560       -2.5903487747        1.7042729041
H                 3.8497385571       -1.0912481993        3.5641437520
H                 2.7039201768        0.8836664809        4.5250474797
H                 1.1265446749        2.2049367976        3.1195807720
H                 0.6909696698        1.5743033373        0.7935022071



