%chk=./calculation/no_transfer_pubchem_sampling_6_b3lyp/60010364.chk
%nprocshared=7
%mem=6GB
#p b3lyp/6-31g(d) opt SCF=XQC 

Gaussian input prepared by ASE

0 1
C                -6.3134835051        5.7019315869       -0.0689673655
O                -5.0265166757        5.8366143899       -0.6172274721
C                -4.1395966801        4.8113014521       -0.4549857195
C                -4.3994744197        3.6300788414        0.2296722462
C                -3.4213874154        2.6562840814        0.3266126841
C                -2.1682716516        2.8313527883       -0.2460385934
C                -1.1140861354        1.8106509010       -0.1223081452
C                 0.1652169417        2.1900730909        0.2588959596
C                 1.1937576620        1.2693933716        0.3943279335
C                 2.5647638341        1.7049663300        0.8435014618
N                 3.5835867449        0.8591172230        0.2571976609
C                 4.9268590077        0.9800886708        0.8049813893
C                 5.5776702966        2.3447109094        0.5386910713
C                 5.7264135054       -0.1995085740        0.2837004672
C                 6.7949633674       -0.0388785337       -0.5601811271
C                 7.5246859364       -1.1358266662       -1.0423446518
C                 7.1800641939       -2.4046229641       -0.6813578806
C                 6.0806889732       -2.6253522595        0.1737668921
C                 5.7049187079       -3.9330604096        0.5463894923
C                 4.6331880026       -4.1506926916        1.3640867005
C                 3.8933775979       -3.0612170726        1.8445599851
C                 4.2368642924       -1.7815072493        1.5067192767
C                 5.3373119640       -1.5168126425        0.6623697372
C                 0.9248557864       -0.0631736244        0.1260860506
C                -0.3390860845       -0.4655790388       -0.2677867463
C                -1.3726485034        0.4549912474       -0.3957060191
O                -2.6347142124        0.1587002629       -0.8190410198
C                -3.0091445483       -1.1818610440       -1.0452538422
C                -3.2800529333       -1.9449307955        0.2537667052
C                -3.7706231633       -3.3632064163       -0.0332585954
N                -4.9410737155       -3.3895564305       -0.8948042619
C                -6.1354587085       -2.9292914157       -0.2174631383
C                -5.1479233063       -4.7048284598       -1.4636894854
C                -1.9152957547        4.0227093064       -0.9249767639
C                -2.8832644273        4.9964530102       -1.0324001422
H                -6.2791561394        5.5989773704        1.0209376744
H                -6.8466289683        4.8464485429       -0.4970037934
H                -6.8415477526        6.6191167384       -0.3258434173
H                -5.3581574175        3.4560926978        0.6934346297
H                -3.6350927523        1.7484190798        0.8687349771
H                 0.3499846341        3.2335191044        0.4735860091
H                 2.6923718545        2.7776463514        0.6162590885
H                 2.6343329444        1.5947652377        1.9340385091
H                 3.6034860511        0.9779793381       -0.7503617770
H                 4.8366860926        0.8698736678        1.8949547029
H                 5.0122015193        3.1226068094        1.0476594197
H                 5.5850383650        2.5713393161       -0.5260424303
H                 6.5959351936        2.3641135216        0.9180998314
H                 7.1047886601        0.9455686535       -0.8728179653
H                 8.3621413247       -0.9601977017       -1.7021404077
H                 7.7369748562       -3.2563939400       -1.0453261107
H                 6.2850583339       -4.7624801163        0.1663009605
H                 4.3499885707       -5.1553269865        1.6432973354
H                 3.0438884280       -3.2402674583        2.4882393265
H                 3.6459537956       -0.9608678882        1.8762566301
H                 1.7167902206       -0.7901995598        0.2180736387
H                -0.5016129362       -1.5107316009       -0.4792864751
H                -2.2620589694       -1.7067153333       -1.6524698129
H                -3.9348192923       -1.1225191169       -1.6224008226
H                -2.3683951699       -2.0034927964        0.8517176164
H                -4.0166733993       -1.3899620313        0.8359344274
H                -3.9610641626       -3.8803317600        0.9253619809
H                -2.9731456105       -3.9041364647       -0.5503784954
H                -6.3915539466       -3.5501257271        0.6565852350
H                -6.9697655413       -2.9546229328       -0.9166460150
H                -5.9990359474       -1.9021866418        0.1118440445
H                -5.3429318988       -5.4757324035       -0.7009823490
H                -4.2658696296       -4.9943686929       -2.0330552565
H                -5.9990055408       -4.6672924694       -2.1419422233
H                -0.9518072470        4.1754873901       -1.3888394327
H                -2.6943814967        5.9164816265       -1.5633169974



