%chk=./calculation/no_transfer_pubchem_sampling_6_b3lyp/6060441.chk
%nprocshared=7
%mem=6GB
#p b3lyp/6-31g(d) opt SCF=XQC 

Gaussian input prepared by ASE

0 1
C                 2.5156402419       -3.0688151096       -0.0491105494
C                 3.4997278048       -1.9332629043       -0.3014752823
C                 4.9610268021       -2.3834298024       -0.2914143670
C                 5.4850860170       -2.8591126932        1.0653716699
C                 5.3821395112       -1.8382621350        2.2005257946
C                 6.0535231774       -0.4818959641        1.9690046192
C                 7.5871212340       -0.5030212826        1.9363843654
C                 8.2302103753       -0.7433792992        0.5675575343
C                 7.9400181822        0.3663859624       -0.4410260296
C                 8.6970998907        0.1602215530       -1.7545950907
C                 8.0991703826        0.9541947326       -2.9174050156
C                 8.2455691500        2.4701099399       -2.7670338766
C                 7.3507767749        3.2525621756       -3.7401779993
C                 6.0606274705        3.7725901586       -3.0996703092
C                 5.1620824618        2.6698826531       -2.5477462335
C                 3.8950087077        3.2255617214       -1.9008619442
C                 3.0455403138        2.1304794903       -1.2537884348
C                 2.2304360804        1.3143291265       -2.2671143947
N                 1.0714537433        2.0282144792       -2.7283401831
C                -0.1085666358        2.1874327808       -2.0245536639
C                -0.4729601666        1.7227868650       -0.7932101999
C                 0.2034988384        0.9783770639        0.1871353743
C                -0.3763927991        0.6644025709        1.4043820572
C                 0.2592229133       -0.0408419207        2.4106221458
C                -0.3671274225       -0.3509123539        3.6280325149
C                 0.1289704665       -1.0484772718        4.6902202092
N                -0.6155981365       -1.3247018081        5.8282227242
C                -2.0203888388       -1.0507611633        5.9642144713
C                -2.8634782709       -2.0317844346        5.1403500437
C                -4.3537262489       -1.6901195201        5.1704166567
C                -5.1295601512       -2.3457135875        4.0184219810
C                -5.4018731083       -1.4016087175        2.8424681484
C                -4.1612593112       -0.7826982099        2.1952745078
C                -3.3061339808       -1.7724191097        1.3992608489
C                -3.8395792585       -2.0335676068       -0.0104525162
C                -3.5402762594       -0.8836055329       -0.9725480168
C                -4.1611805808       -1.0865931623       -2.3617208961
C                -5.4486478268       -0.2925820630       -2.5938184534
C                -6.5976558064       -0.7018033127       -1.6754316147
C                -7.8870039576        0.0775209652       -1.9415456511
C                -8.5604384369       -0.2888830014       -3.2623823610
C                -9.8827062880        0.4538815318       -3.4426829514
C               -10.6429838545        0.0449283235       -4.7045881033
C                -9.9530974602        0.4731215211       -5.9981897975
C               -10.8020662845        0.1460365362       -7.2207591032
C                 0.1203534989       -2.0552445552        6.7330161743
C                -0.2462507734       -2.5566565541        7.9738799784
C                 0.7073214148       -3.2458567074        8.7067931578
C                 1.9899336864       -3.4380842617        8.2217998516
C                 2.3500914541       -2.9432849870        6.9723961671
C                 1.4149652362       -2.2566253989        6.2369893871
C                 1.5176992741       -1.6391543673        4.8648271275
C                 2.6088967289       -0.5617052290        4.8432772685
C                 1.8022228254       -2.7365226621        3.8302372616
C                -1.0605004561        3.0327120738       -2.8616103479
C                -1.4348269008        4.3342862565       -2.1413773391
C                -2.3243067420        2.2493969673       -3.2358466673
C                -0.2283395518        3.3188440183       -4.0816431516
C                -0.5252719515        4.0448461644       -5.2094201672
C                 0.4370680198        4.1579883936       -6.2072806157
C                 1.6694863317        3.5441521103       -6.0600974475
C                 1.9801504436        2.8079002424       -4.9278790100
C                 1.0189332945        2.6988122082       -3.9317998105
H                 1.4932669893       -2.6964979761       -0.0760848966
H                 2.6208347650       -3.8379889117       -0.8115828231
H                 2.6850666906       -3.5259339910        0.9220579801
H                 3.2869636796       -1.4988877802       -1.2822752691
H                 3.3505274966       -1.1480852322        0.4420879667
H                 5.0771468488       -3.2022541619       -1.0068019010
H                 5.5806853316       -1.5586430618       -0.6461191996
H                 4.9319672018       -3.7514946462        1.3680077082
H                 6.5272701014       -3.1610317890        0.9445842035
H                 4.3265979086       -1.6570765473        2.4112020008
H                 5.8131791183       -2.2890886469        3.0989640237
H                 5.7474748075        0.1643953086        2.7965646594
H                 5.6653227073       -0.0287793586        1.0580152781
H                 7.9414593423       -1.2700364509        2.6293733711
H                 7.9523904334        0.4587383013        2.3068716023
H                 7.8977998439       -1.6958532962        0.1545269754
H                 9.3123353047       -0.8097580744        0.7099967894
H                 8.2077598866        1.3280762041        0.0007918758
H                 6.8701632419        0.3880035941       -0.6580420288
H                 9.7466136839        0.4310597650       -1.6218224951
H                 8.6617665330       -0.9012874692       -2.0139041834
H                 8.5881024115        0.6469942727       -3.8455078111
H                 7.0438193682        0.6922698976       -3.0073392584
H                 9.2921514296        2.7319608140       -2.9360146618
H                 8.0013860021        2.7678082924       -1.7471450775
H                 7.1030935706        2.6189340453       -4.5947259597
H                 7.8996132600        4.1143465128       -4.1258766104
H                 6.3201667384        4.4572018869       -2.2880101028
H                 5.5034930462        4.3460153476       -3.8452598633
H                 4.9028564884        1.9832346579       -3.3567017446
H                 5.7092669105        2.1053513569       -1.7919708202
H                 3.2995541572        3.7657198349       -2.6396355591
H                 4.1878880923        3.9424063693       -1.1298892106
H                 2.3496662642        2.5848983580       -0.5465703219
H                 3.6962161416        1.4541883124       -0.6946086302
H                 1.8991567805        0.3736364272       -1.8204459107
H                 2.8467717249        1.0661616219       -3.1326490217
H                -1.4799744671        2.0016764417       -0.5042685256
H                 1.2146992343        0.6395747936        0.0340650471
H                -1.3923416669        0.9981165617        1.5825781141
H                 1.2719178894       -0.3662635237        2.2270632331
H                -1.3806062737        0.0194445269        3.7097459605
H                -2.2185273472       -0.0241919005        5.6376878008
H                -2.2863262679       -1.1163165037        7.0208750761
H                -2.7081290101       -3.0428463888        5.5240639908
H                -2.4981261791       -2.0123783693        4.1140931148
H                -4.4819620863       -0.6066115345        5.1162142281
H                -4.7692395073       -2.0119436358        6.1275072094
H                -4.5858029281       -3.2260291234        3.6725520609
H                -6.0975176137       -2.6937489555        4.3858146270
H                -6.0418611875       -0.5901643793        3.2003218770
H                -5.9669388228       -1.9494009584        2.0848076789
H                -4.4883689748        0.0187520500        1.5295621709
H                -3.5532523997       -0.3170784164        2.9707627439
H                -3.2542851075       -2.7193058061        1.9395315745
H                -2.2873108363       -1.3865200089        1.3185753872
H                -3.3717566719       -2.9399500080       -0.4031706588
H                -4.9139280717       -2.2151040021        0.0338013810
H                -2.4555558431       -0.7914194445       -1.0637643495
H                -3.9044390490        0.0554347862       -0.5528531036
H                -4.3630525054       -2.1487545667       -2.5167744609
H                -3.4424669297       -0.7799493320       -3.1245095600
H                -5.7501410898       -0.4347259394       -3.6334054956
H                -5.2430556709        0.7719609320       -2.4554003815
H                -6.3033230452       -0.5281180533       -0.6390615900
H                -6.7929738637       -1.7704015959       -1.7943825664
H                -7.6687632026        1.1483348194       -1.9326125031
H                -8.5886500420       -0.1208233223       -1.1267632347
H                -7.8937203455       -0.0472015171       -4.0899403627
H                -8.7469529209       -1.3654513787       -3.2839377758
H               -10.5167070988        0.2554283137       -2.5743745216
H                -9.6913604035        1.5294620627       -3.4700225120
H               -11.6371986046        0.4984208435       -4.6748246247
H               -10.7767276349       -1.0395846102       -4.7093334676
H                -8.9902673104       -0.0322347744       -6.0884819254
H                -9.7639100390        1.5487152567       -5.9654817264
H               -10.2958078974        0.4530437467       -8.1331775130
H               -11.7597267847        0.6600506211       -7.1702219559
H               -10.9920225828       -0.9237773041       -7.2772624294
H                -1.2411393665       -2.4242409766        8.3710666157
H                 0.4395474999       -3.6416501829        9.6757321016
H                 2.7129237940       -3.9779525532        8.8142805524
H                 3.3487128218       -3.0999782454        6.5917304477
H                 3.5795630061       -1.0124072904        5.0374986853
H                 2.4121706808        0.1813894461        5.6132521553
H                 2.6417138857       -0.0571541387        3.8825161612
H                 1.0401713596       -3.5111271016        3.8908331841
H                 2.7716634413       -3.1892404437        4.0269586162
H                 1.7972181292       -2.3318921763        2.8237518178
H                -0.5369732757        4.8888764557       -1.8766544412
H                -1.9919915651        4.1239178950       -1.2319619196
H                -2.0477335320        4.9565359872       -2.7892405453
H                -2.9652116502        2.8533745063       -3.8738122769
H                -2.8793999496        1.9701931879       -2.3444815532
H                -2.0570194458        1.3425080325       -3.7739741681
H                -1.4875785304        4.5218900850       -5.3231669073
H                 0.2225125155        4.7265182559       -7.0993649614
H                 2.4088074833        3.6399863628       -6.8421255544
H                 2.9498342669        2.3430488071       -4.8423565605



