%chk=calculation/no_transfer_pubchem_sampling_6_b3lyp/6104413_rwf.chk
%rwf=calculation/no_transfer_pubchem_sampling_6_b3lyp/6104413_rwf.rwf
%nprocshared=14
%mem=3GB
#p b3lyp/6-31g(d) 6D 10F nosymm GFInput td=(50-50,nstate=2) SCF=XQC 

Gaussian input prepared by ASE

0 1
C                 8.4154565472       -0.3515457644       -1.8369899739
O                 7.0601694158       -0.3154024905       -1.4231845283
C                 6.7612696238       -0.7861686964       -0.1782096757
C                 7.6842480719       -1.3064156741        0.7271444283
C                 7.2661703629       -1.7638920777        1.9844941076
C                 5.9257825417       -1.7017054134        2.3376474547
C                 4.9872850511       -1.1806294373        1.4357766919
C                 5.3927349990       -0.7236614036        0.1848783775
O                 4.5579238741       -0.1986331999       -0.7653469033
C                 3.1759958183       -0.1058293510       -0.4708265445
C                 2.5241601459        0.5145263896       -1.7104863175
N                 1.0902246902        0.6816610808       -1.5520043015
C                 0.1343392107       -0.1907120392       -1.9913169753
C                -1.1352656884        0.2145226786       -1.5993782290
C                -2.2939801311       -0.5452680766       -2.0009194512
C                -3.5446657445       -0.6737026599       -1.4831768533
N                -4.5577614016       -1.4235037749       -2.0985549880
C                -5.7129625164       -1.4815701492       -1.3768692951
S                -7.1185384927       -2.2199541526       -1.8644038637
N                -5.4465937681       -0.7859126700       -0.1971626471
C                -6.3452781841       -0.6341334865        0.9061793449
C                -6.6449545069        0.6487041341        1.3692791554
C                -7.4969153728        0.8035823863        2.4620865139
C                -8.0532023283       -0.3154713376        3.0835907641
C                -7.7486088661       -1.5945556003        2.6141249323
C                -6.8881740170       -1.7596729993        1.5298417046
C                -4.1310329812       -0.2544582445       -0.1900243022
O                -3.6341446208        0.3644447452        0.7319441576
C                -0.9418247374        1.4670778554       -0.8838706714
C                -1.7964364377        2.4357708830       -0.3325101898
C                -1.2472968855        3.5792160107        0.2351846962
C                 0.1435784447        3.7910782891        0.2603100258
C                 1.0161375324        2.8639001304       -0.2969266830
C                 0.4561833198        1.7189279229       -0.8719199768
H                 8.8034083923       -1.3787512808       -1.8641943864
H                 9.0548938169        0.2564922221       -1.1829666990
H                 8.4305338959        0.0662235949       -2.8453722348
H                 8.7339679477       -1.3596747529        0.4619317745
H                 8.0008002137       -2.1657873664        2.6761752234
H                 5.5927360567       -2.0534691358        3.3095545390
H                 3.9419492321       -1.1353861997        1.7202621394
H                 3.0000874494        0.5243679316        0.4118693421
H                 2.7452295040       -1.0977440635       -0.2725449253
H                 2.7083189137       -0.1248110445       -2.5782962436
H                 2.9812602575        1.4868055534       -1.9179445801
H                 0.4182301006       -1.0699250884       -2.5555817818
H                -2.1220830557       -1.1535509538       -2.8911946682
H                -4.5221534380       -1.8056863588       -3.0323491294
H                -6.2092970566        1.5130997480        0.8805964169
H                -7.7277318118        1.8015213010        2.8239631569
H                -8.7208964711       -0.1915480602        3.9317565249
H                -8.1773460195       -2.4695154092        3.0944343987
H                -6.6441932075       -2.7494665901        1.1613587496
H                -2.8668181000        2.2856397986       -0.3277048934
H                -1.9062061926        4.3243476122        0.6718795675
H                 0.5422347835        4.6933468874        0.7154843853
H                 2.0890518196        3.0328578475       -0.2934226608



