%chk=./calculation/no_transfer_pubchem_sampling_6_b3lyp/63404967.chk
%nprocshared=7
%mem=6GB
#p b3lyp/6-31g(d) opt SCF=XQC 

Gaussian input prepared by ASE

0 1
C                -4.9449952988       -0.5584231057        2.0905458401
C                -4.0285621214       -0.4529034412        0.9108738267
C                -4.4873714143       -0.6835311962       -0.3801449424
C                -3.6419219047       -0.5384813866       -1.4629856036
C                -2.3086493907       -0.1770259145       -1.3108001511
C                -1.4529027548        0.0185503041       -2.5267049790
C                -1.8408068324        0.0173066611       -0.0089901051
N                -0.5087895029        0.3708003502        0.2670636862
C                 0.6264963335       -0.1251068948       -0.2716627867
C                 1.6897361831        0.4997764271        0.3557920158
C                 3.1124501820        0.3080855334        0.1246625305
C                 3.5864755551       -0.8465617740       -0.4974109486
C                 4.9390515690       -1.0248900850       -0.7150653889
C                 5.8442891766       -0.0557795690       -0.3155790533
C                 5.3853811896        1.0947024768        0.3039022375
C                 4.0332653040        1.2766427948        0.5222848449
C                 1.0645612899        1.3680518828        1.2793358355
N                -0.2430642853        1.2660463578        1.2219442928
C                -2.6989261693       -0.1037166167        1.0785717326
H                -5.3692082829        0.4198647627        2.3177900548
H                -5.7646749419       -1.2430174863        1.8858684543
H                -4.4059099162       -0.9019246969        2.9700699735
H                -5.5175522602       -0.9661864646       -0.5405416794
H                -4.0254412431       -0.6989112465       -2.4604303310
H                -2.0708110329        0.3297297585       -3.3662797654
H                -0.6903483903        0.7755833712       -2.3564073277
H                -0.9584030848       -0.9114564229       -2.8095606354
H                 0.6087772232       -0.8830298305       -1.0261091999
H                 2.8898942668       -1.6140603055       -0.8012577163
H                 5.2905381795       -1.9261900089       -1.1967317147
H                 6.9015002607       -0.1968321149       -0.4857303172
H                 6.0860640594        1.8555296922        0.6166850335
H                 3.6837245558        2.1818453496        0.9958911199
H                 1.5174781913        2.0370264226        1.9833816833
H                -2.3013466926        0.0884864158        2.0634284836



