%chk=./calculation/no_transfer_pubchem_sampling_6_b3lyp/67309298.chk
%nprocshared=7
%mem=6GB
#p b3lyp/6-31g(d) opt SCF=XQC 

Gaussian input prepared by ASE

0 1
C                 7.8363971352        1.9391249390       -2.2139137532
C                 6.9921591291        1.6351168713       -1.0152418941
C                 5.7850730113        0.9555366620       -1.1422424537
C                 5.0204342753        0.6931115295       -0.0096536762
C                 3.7412889175       -0.0212056684       -0.1021539114
C                 2.6526111039        0.3641642044        0.6779642843
C                 1.4505244418       -0.3047181332        0.5881736062
C                 1.3053373606       -1.3872712677       -0.2788380150
N                 0.0673445619       -2.0301720927       -0.3124098738
C                -0.3548255942       -3.0435357454       -1.1175300175
O                 0.3164480682       -3.5875351315       -1.9630502229
C                -1.7961635125       -3.4664291443       -0.8206294211
C                -2.6863542171       -2.3039073647       -0.4975963111
C                -3.0277408132       -1.9949455186        0.8143611664
C                -3.8119751697       -0.8937184217        1.1006882327
C                -4.2832463657       -0.0546071124        0.0944123671
C                -5.1402053361        1.1462585025        0.4605799399
C                -6.4035132011        0.6576870915        1.1832734734
C                -4.3355508517        2.0704906386        1.3858092481
C                -5.5743271243        1.9568295546       -0.7634662455
C                -3.9371286953       -0.3696687569       -1.2147183334
C                -3.1529015728       -1.4715064445       -1.5057080098
C                 2.3887866270       -1.7826905916       -1.0583228915
C                 3.5853115871       -1.1002174358       -0.9692725729
C                 5.5181819869        1.1348757231        1.2176759826
C                 6.7295630862        1.7997720086        1.2392012796
N                 7.4510861226        2.0475535316        0.1589521835
H                 8.0857420809        1.0225556108       -2.7456760203
H                 8.7505112374        2.4323344075       -1.8976908611
H                 7.2966924078        2.5911186196       -2.8991218373
H                 5.4373780420        0.6521686896       -2.1186325893
H                 2.7432969697        1.2104784997        1.3429145075
H                 0.6098193861        0.0111455374        1.1912517386
H                -0.6243220454       -1.6488416461        0.3221171295
H                -1.7601706654       -4.1669429210        0.0180817735
H                -2.1576972842       -4.0066331083       -1.6968949115
H                -2.6861071663       -2.6290854857        1.6220493819
H                -4.0571840393       -0.6932323648        2.1328516186
H                -6.1585288456        0.1326271664        2.1023737039
H                -6.9645487802       -0.0197509281        0.5428334638
H                -7.0410523925        1.5025968012        1.4344265831
H                -4.9260097435        2.9466928408        1.6444805028
H                -3.4263491768        2.4025105232        0.8883748205
H                -4.0565810917        1.5660767469        2.3069496185
H                -6.1830704385        2.7994893397       -0.4421628197
H                -6.1714002907        1.3519121747       -1.4419129536
H                -4.7133617931        2.3506439381       -1.2987758463
H                -4.2757157056        0.2428368381       -2.0339435216
H                -2.8983991028       -1.6902868894       -2.5327500844
H                 2.2850251704       -2.6197046258       -1.7279453458
H                 4.4227877880       -1.4271938453       -1.5674378298
H                 4.9792820137        0.9424238574        2.1324900435
H                 7.1533465047        2.1556697962        2.1699825743



