%chk=calculation/no_transfer_pubchem_sampling_6_b3lyp/67309298_rwf.chk
%rwf=calculation/no_transfer_pubchem_sampling_6_b3lyp/67309298_rwf.rwf
%nprocshared=14
%mem=3GB
#p b3lyp/6-31g(d) 6D 10F nosymm GFInput td=(50-50,nstate=2) SCF=XQC 

Gaussian input prepared by ASE

0 1
C                 8.7169302501        0.8388970847       -1.6312179144
C                 7.5009072419        1.2149677105       -0.8203821657
C                 6.2783269515        0.5589692528       -0.9914565758
C                 5.1603754878        0.9298553802       -0.2281451254
C                 3.8523726906        0.2522573683       -0.3867861324
C                 2.6462970063        0.9597495768       -0.2503247100
C                 1.4205411147        0.3252170768       -0.4018339495
C                 1.3546727972       -1.0472762250       -0.6922494824
N                 0.0763616485       -1.6195050746       -0.8312012475
C                -0.2610591000       -2.9215923720       -1.1110897653
O                 0.5432611921       -3.8249802278       -1.2881539723
C                -1.7743725863       -3.1962512680       -1.2343725243
C                -2.7282091960       -2.1418838048       -0.7217834658
C                -3.1014578886       -2.0992208391        0.6304491337
C                -3.9646442391       -1.1171428224        1.1062338456
C                -4.4978113473       -0.1268412626        0.2614149244
C                -5.4535191114        0.9376636097        0.8293911118
C                -6.7005245331        0.2424307464        1.4261921762
C                -4.7319162321        1.7367810938        1.9407433047
C                -5.9275645834        1.9326939528       -0.2467436883
C                -4.1194249136       -0.1730940239       -1.0864661390
C                -3.2539204163       -1.1593669360       -1.5682793064
C                 2.5491631351       -1.7720104482       -0.8289298441
C                 3.7689621066       -1.1188289544       -0.6779114618
C                 5.3448473163        1.9743300739        0.6896452877
C                 6.5989008954        2.5724922462        0.7896309777
N                 7.6630712860        2.2166361613        0.0632277688
H                 8.5072669195        0.0180108056       -2.3235672101
H                 9.5370298144        0.5376501538       -0.9696169086
H                 9.0728509515        1.7002656632       -2.2077761361
H                 6.1911506491       -0.2243422380       -1.7385845057
H                 2.6671981219        2.0271502781       -0.0503962804
H                 0.5016982972        0.8998395851       -0.3033135807
H                -0.7023369501       -0.9867554964       -0.6942714742
H                -1.9344254297       -4.1514940381       -0.7237531918
H                -1.9546268413       -3.3893077678       -2.2995080472
H                -2.7136840833       -2.8490676648        1.3166997599
H                -4.2299084422       -1.1277499270        2.1597710800
H                -6.4358405284       -0.4502300174        2.2319422807
H                -7.2372007761       -0.3267687143        0.6587485223
H                -7.3896554478        0.9879970474        1.8409619849
H                -5.4036715218        2.4943921703        2.3620240376
H                -3.8481256652        2.2500917448        1.5447140588
H                -4.4035519396        1.0906321507        2.7615566835
H                -6.6013946796        2.6695381514        0.2042686807
H                -6.4779903218        1.4325888831       -1.0517249152
H                -5.0906071994        2.4818312961       -0.6931437794
H                -4.5029523258        0.5602220726       -1.7871549343
H                -2.9939295639       -1.1672804817       -2.6250216879
H                 2.5066331895       -2.8306378649       -1.0423860563
H                 4.6815820688       -1.7018482051       -0.7633398739
H                 4.5352250179        2.2987314865        1.3361833861
H                 6.7586977133        3.3815958515        1.5016640472



