%chk=./calculation/no_transfer_pubchem_sampling_6_b3lyp/67959176.chk
%nprocshared=7
%mem=6GB
#p b3lyp/6-31g(d) opt SCF=XQC 

Gaussian input prepared by ASE

0 1
C                 6.8519827427        0.7713505840       -1.1937110729
N                 5.7903474311       -0.1308220378       -0.8093755680
C                 5.4328748897       -0.0682091608        0.5991584103
C                 4.1957503098        0.7934834140        0.8718581465
N                 3.0595041963        0.2239501990        0.1792293097
C                 1.7905114338        0.2860372485        0.6764078695
C                 1.4499114901        1.2703552275        1.6456141062
C                 0.1906469041        1.3711761189        2.1550124815
C                -0.8343173084        0.4991727950        1.7322135973
N                -2.0632616194        0.6270871514        2.2655957693
C                -3.0031691830       -0.1870991581        1.8753275764
C                -2.7907903100       -1.1889363097        0.9153239523
S                -4.1583415061       -2.2318621967        0.4118024650
O                -4.7897995882       -2.7817598371        1.5823564067
O                -3.6841713749       -3.1417008023       -0.5995692784
C                -5.2797151965       -1.0481706384       -0.3431345792
C                -6.4144201494       -0.6498942895        0.3346481248
C                -7.2460825123        0.2972364256       -0.2401996396
C                -6.9284414860        0.8328558140       -1.4783684257
C                -5.7859091656        0.4242234365       -2.1495309436
C                -4.9524672696       -0.5221241263       -1.5776070820
C                -1.5597278537       -1.3427011765        0.3468597286
C                -0.5127577830       -0.4840135455        0.7507917031
C                 0.7897855499       -0.5743841525        0.2451886402
C                 3.3747867551       -0.5443478684       -1.0057949899
C                 4.6245192148        0.0261564239       -1.6651026705
H                 7.0977940654        0.5921469763       -2.2397408463
H                 6.5851681845        1.8340698962       -1.0787657987
H                 7.7350704764        0.5623390778       -0.5927156501
H                 5.2287779801       -1.0877325769        0.9466029208
H                 6.2788190702        0.3151414259        1.1714296741
H                 4.0058320981        0.8037166588        1.9476404787
H                 4.3828321721        1.8263837765        0.5422465377
H                 2.2027116060        1.9713238747        1.9704463849
H                -0.0559311746        2.1235658108        2.8873946581
H                -3.9782729706       -0.0719167221        2.3277799213
H                -6.6309532463       -1.0981063817        1.2918144928
H                -8.1393792875        0.6161092994        0.2752560394
H                -7.5771117865        1.5712810549       -1.9258731555
H                -5.5470825476        0.8420179227       -3.1159517950
H                -4.0621582988       -0.8707991206       -2.0774493773
H                -1.4011048019       -2.1165470327       -0.3900893805
H                 0.9945859376       -1.3518786700       -0.4732798805
H                 3.5361630925       -1.6054092513       -0.7711184364
H                 2.5420815114       -0.4668832109       -1.7096084209
H                 4.8166697469       -0.5011958185       -2.6047450222
H                 4.4382385612        1.0875734718       -1.9062673819



