%chk=calculation/no_transfer_pubchem_sampling_6_b3lyp/67959176_rwf.chk
%rwf=calculation/no_transfer_pubchem_sampling_6_b3lyp/67959176_rwf.rwf
%nprocshared=14
%mem=3GB
#p b3lyp/6-31g(d) 6D 10F nosymm GFInput td=(50-50,nstate=2) SCF=XQC 

Gaussian input prepared by ASE

0 1
C                 6.8469467017        0.7433595170       -1.3520701993
N                 5.7273970438       -0.0852952813       -0.9346315233
C                 5.4583021882       -0.0678670077        0.5105420447
C                 4.2372053573        0.7731111154        0.9096485177
N                 3.0489556271        0.2794733044        0.2114951965
C                 1.7941236175        0.2882837012        0.7902605852
C                 1.5209982880        1.1456487812        1.9085841542
C                 0.2845647909        1.1862469978        2.5019149870
C                -0.7855224277        0.3868262811        2.0244620882
N                -1.9928102725        0.4576902876        2.6541958530
C                -2.9753099597       -0.2918399275        2.2006297836
C                -2.8273222069       -1.1556346451        1.0830302194
S                -4.2141794903       -2.1558616567        0.5264327117
O                -4.9665889020       -2.5684890120        1.7221120059
O                -3.6835801548       -3.1404308807       -0.4318636190
C                -5.2598552833       -1.0133529960       -0.3969438032
C                -6.3171843015       -0.3782127963        0.2564544640
C                -7.1244307184        0.5032621130       -0.4634960405
C                -6.8719427394        0.7381988946       -1.8168463259
C                -5.8166061795        0.0870574390       -2.4610431524
C                -5.0031918471       -0.7964302419       -1.7523219352
C                -1.6181323959       -1.2506337500        0.4355290482
C                -0.5334207689       -0.4620246976        0.8989489068
C                 0.7495932686       -0.5023686735        0.3069359134
C                 3.2759454923       -0.3787745266       -1.0728377768
C                 4.5327962493        0.1804613439       -1.7351696575
H                 7.0393073314        0.5807212862       -2.4189653071
H                 6.6809388468        1.8294481658       -1.2053420889
H                 7.7500884678        0.4557851866       -0.8041674683
H                 5.2941499849       -1.0950398277        0.8653619703
H                 6.3397102970        0.3124113865        1.0375400548
H                 4.0920771714        0.6760617136        1.9903057858
H                 4.4181223976        1.8391082580        0.6973862218
H                 2.3020141866        1.7992006825        2.2809515156
H                 0.0902215589        1.8414226870        3.3453194673
H                -3.9251005784       -0.2430089537        2.7278811357
H                -6.5104656565       -0.5923809275        1.3022625167
H                -7.9536413149        1.0007062365        0.0314307420
H                -7.5038024626        1.4248026167       -2.3735700485
H                -5.6313009109        0.2615867241       -3.5171257205
H                -4.1933339848       -1.3282103845       -2.2407058889
H                -1.4974179588       -1.9284000716       -0.4046046193
H                 0.9081997967       -1.1886069728       -0.5175338906
H                 3.3620286418       -1.4726137222       -0.9659086798
H                 2.4202223361       -0.1809327039       -1.7277620886
H                 4.6522242892       -0.2774086072       -2.7257642943
H                 4.3790055835        1.2652035443       -1.9009417617



