%chk=./calculation/no_transfer_pubchem_sampling_6_b3lyp/70972507.chk
%nprocshared=7
%mem=6GB
#p b3lyp/6-31g(d) opt SCF=XQC 

Gaussian input prepared by ASE

0 1
C                -7.9604838790        0.7084395348       -1.2245925861
C                -7.9000289518       -0.6999388943       -0.6340702584
C                -9.2404420662       -1.4017219196       -0.8376097284
C                -7.5227224778       -0.6254709244        0.8561592809
C                -7.3792660936       -2.0021391940        1.5103472466
C                -6.2018419212        0.1024970211        1.0300008976
O                -6.0373787139        1.0640576767        1.7362531342
O                -5.2307866476       -0.4704562668        0.3160705161
C                -3.9232046321        0.1053027110        0.4111875861
C                -3.1916138269       -0.4409467174        1.6458881570
C                -1.6810790425       -0.5119613267        1.4146335643
C                -1.2119787678        0.6526925403        0.5372316264
O                 0.2011255217        0.6160995593        0.4507696346
C                 0.9467435326        1.7959061049        0.7338365398
C                 0.8026701819        2.1863627840        2.2143758830
C                 0.5245163316        2.9550954979       -0.1830900773
C                 2.4032690923        1.4485505082        0.4529662080
C                 3.4062206820        2.4196419499        0.6546442195
C                 4.7194654420        2.1387017167        0.4109587759
C                 5.1160415692        0.8665283611       -0.0513342765
C                 6.4604623594        0.5451570582       -0.3149489514
C                 6.8223906297       -0.7052952922       -0.7576999257
C                 8.2297363289       -1.0362086733       -1.0259023868
C                 9.0608103696       -0.1280810468       -1.6779787191
C                10.3836184490       -0.4396153107       -1.9306410743
C                10.9001176181       -1.6610294680       -1.5314825290
C                10.0839758089       -2.5702636083       -0.8797209997
C                 8.7591970060       -2.2627954514       -0.6315893231
C                 5.8181194561       -1.6789446857       -0.9531709698
C                 4.5059100059       -1.3922269532       -0.7125995890
C                 4.1148030561       -0.1166119640       -0.2534943521
C                 2.7686322838        0.2057498053        0.0068276447
C                -1.8247499340        0.5262950321       -0.8729468926
C                -3.1543926878       -0.2315658092       -0.8596892483
H                -8.7241352586        1.2976834749       -0.7210424941
H                -8.2015366513        0.6662761776       -2.2845311350
H                -7.0077518659        1.2204471881       -1.1111270677
H                -7.1194642727       -1.2660953888       -1.1524440822
H                -9.5233703667       -1.3615947603       -1.8870533452
H                -9.1905059867       -2.4461111637       -0.5434208864
H               -10.0181503912       -0.9116714000       -0.2555928291
H                -8.2789473730       -0.0449472064        1.3937654305
H                -6.9949789488       -1.8950208947        2.5229945386
H                -8.3412399414       -2.5035146433        1.5651512454
H                -6.6884461153       -2.6179139023        0.9393610404
H                -4.0457921404        1.1927856130        0.4963619608
H                -3.4201401146        0.1933345548        2.5035775376
H                -3.5771233250       -1.4401894598        1.8592801576
H                -1.1536865964       -0.4776141402        2.3683808643
H                -1.4030508548       -1.4431233928        0.9208045753
H                -1.5512226432        1.5845714277        1.0027769222
H                 1.1099428987        1.3495966218        2.8377515234
H                 1.4262636066        3.0436517839        2.4472169421
H                -0.2277918178        2.4400380123        2.4525413069
H                 1.1779277380        3.8099609073       -0.0395881220
H                 0.5896987457        2.6356273273       -1.2207818031
H                -0.4959496859        3.2674702872        0.0262823130
H                 3.1369058552        3.4038864038        1.0086672461
H                 5.4771538122        2.8932017702        0.5699772390
H                 7.2162297480        1.2984308480       -0.1408703426
H                 8.6580596222        0.8194592661       -2.0057000322
H                11.0147394713        0.2720622453       -2.4432608389
H                11.9342272185       -1.9033363646       -1.7277228461
H                10.4826633045       -3.5230168702       -0.5620893523
H                 8.1322463399       -2.9700694298       -0.1078910761
H                 6.1034834387       -2.6545102557       -1.3196895586
H                 3.7428791419       -2.1407952788       -0.8725628931
H                 2.0117069899       -0.5460935677       -0.1477261756
H                -1.1068645884       -0.0008906597       -1.5027368237
H                -1.9692512222        1.5216041197       -1.2960874749
H                -2.9914160022       -1.3089984140       -0.8904312226
H                -3.7511708513        0.0381748089       -1.7321324690



