%chk=./calculation/no_transfer_pubchem_sampling_6_b3lyp/71181252.chk
%nprocshared=7
%mem=6GB
#p b3lyp/6-31g(d) opt SCF=XQC 

Gaussian input prepared by ASE

0 1
C                -1.4095378378       -3.2243867283       -1.5799679221
N                -0.4933710233       -2.2524283369       -1.0446781188
C                -0.8822840447       -1.0942843642       -0.4825708620
N                -2.1772762293       -0.8598767714       -0.3876515215
C                -2.5843968725        0.2894566902        0.1758372680
C                -4.0321064838        0.4973271887        0.2625313341
C                -4.9348732020       -0.4311455135       -0.2518408933
C                -6.2900849842       -0.1789375469       -0.1385430598
C                -6.6922637738        0.9935000399        0.4851220900
N                -5.8452230588        1.8833322500        0.9777695913
C                -4.5537939440        1.6420179211        0.8693052682
N                -1.8034441811        1.2323640723        0.6457137257
C                -0.4737497554        1.0349659543        0.5714601201
C                 0.3930815569        2.0295973987        1.0662821273
C                 1.7470517822        1.8589677373        1.0133167587
C                 2.3047722002        0.6838068042        0.4737593352
C                 3.7633943445        0.4936796188        0.4413467355
C                 4.3364765268       -0.7163077851        0.8296990420
C                 5.7031249296       -0.9125878331        0.8073831325
C                 6.5326390516        0.1110880535        0.3857631747
F                 7.8603635506       -0.0725038476        0.3609039088
C                 5.9977511883        1.3297896735       -0.0145608894
F                 6.7951135092        2.3207065139       -0.4332222269
C                 4.6202437268        1.5101366274        0.0190376103
F                 4.1258566535        2.6860612197       -0.3975289524
C                 1.4719109636       -0.3020696313       -0.0166547801
C                 0.0822691369       -0.1463463563        0.0128507323
H                -1.2100194272       -4.2078327688       -1.1506368715
H                -2.4154172564       -2.9075492518       -1.3171911802
H                -1.3214163464       -3.2863813656       -2.6673267506
H                 0.4900936178       -2.4217296330       -1.1724389451
H                -4.5638018335       -1.3253319440       -0.7288802909
H                -7.0197737168       -0.8741348865       -0.5251953465
H                -7.7410451008        1.2366725705        0.5979428012
H                -3.8849190017        2.3849786408        1.2799273680
H                -0.0480590553        2.9195086775        1.4852065366
H                 2.4022260661        2.6223107880        1.4039700879
H                 3.6923081020       -1.5091335077        1.1762080763
H                 6.1416583664       -1.8475831758        1.1162140778
H                 1.9165268557       -1.1897171920       -0.4457082914



