%chk=calculation/no_transfer_pubchem_sampling_6_b3lyp/71181252_rwf.chk
%rwf=calculation/no_transfer_pubchem_sampling_6_b3lyp/71181252_rwf.rwf
%nprocshared=14
%mem=3GB
#p b3lyp/6-31g(d) 6D 10F nosymm GFInput td=(50-50,nstate=2) SCF=XQC 

Gaussian input prepared by ASE

0 1
C                -1.4192761370       -3.2168090446       -1.5920142021
N                -0.4815587197       -2.2640601457       -1.0193401428
C                -0.8852773266       -1.0846252074       -0.4740944362
N                -2.1891390729       -0.8666296445       -0.3805643772
C                -2.6036946666        0.3111273100        0.1620835250
C                -4.0726167894        0.5020607778        0.2602639723
C                -4.9713177996       -0.4765109879       -0.1821152525
C                -6.3378499680       -0.2420836198       -0.0625442581
C                -6.7614347810        0.9644508141        0.4958389681
N                -5.9219860280        1.9165538532        0.9263930135
C                -4.6124859421        1.6794211431        0.8060228988
N                -1.8287656250        1.2917314332        0.5918039116
C                -0.4834268979        1.0868204300        0.5141880176
C                 0.3965573391        2.1034255788        0.9642151033
C                 1.7602021079        1.9264879233        0.9237799198
C                 2.3312834067        0.7156959628        0.4436347450
C                 3.7987135082        0.4946371254        0.4552156257
C                 4.3522076558       -0.7379677561        0.8455947891
C                 5.7264404512       -0.9685304149        0.8438958715
C                 6.5838406778        0.0499001684        0.4489079458
F                 7.9130640576       -0.1316304425        0.4404093349
C                 6.0766460531        1.2871689930        0.0607582855
F                 6.9010526284        2.2676712521       -0.3280869979
C                 4.7001035533        1.4945934475        0.0653505079
F                 4.2606696207        2.6997827697       -0.3399567974
C                 1.4780938181       -0.2820345903       -0.0126631743
C                 0.0783668577       -0.1157490586        0.0029447975
H                -0.8616963266       -4.1036003745       -1.9027907084
H                -2.1623899491       -3.5053407522       -0.8447171797
H                -1.9521189904       -2.8021325804       -2.4569467571
H                 0.4848419673       -2.3447778866       -1.2924205582
H                -4.5869509011       -1.3960267413       -0.6093478002
H                -7.0640164443       -0.9782776082       -0.3951627231
H                -7.8235786418        1.1799289722        0.6039172824
H                -3.9396300149        2.4562393483        1.1573753229
H                -0.0440930762        3.0177496647        1.3483047035
H                 2.4139417215        2.7150487212        1.2795545227
H                 3.6845156161       -1.5228734271        1.1854950612
H                 6.1450256935       -1.9185119677        1.1578311023
H                 1.9177423641       -1.2023234380       -0.3880598624



