%chk=calculation/no_transfer_pubchem_sampling_6_b3lyp/7195841_rwf.chk
%rwf=calculation/no_transfer_pubchem_sampling_6_b3lyp/7195841_rwf.rwf
%nprocshared=14
%mem=3GB
#p b3lyp/6-31g(d) 6D 10F nosymm GFInput td=(50-50,nstate=2) SCF=XQC 

Gaussian input prepared by ASE

0 1
O                 2.1810183600       -2.7681676546       -1.4401308414
C                 2.0429709450       -1.6287629681       -1.0132650590
C                 1.6465980267       -0.5320756721       -1.9544317145
N                 2.1029759324       -0.5623960982       -3.1640690003
N                 1.6343622349        0.5269147217       -3.8576000151
C                 0.4375573684        1.0688246806       -3.1873092338
C                 0.7272529659        0.6791222983       -1.7149445081
C                -0.4965971073        0.5522701487       -0.8185999554
C                -0.7827315623        1.5935831084        0.1071516701
C                -0.0038715945        2.7940001038        0.2344126184
C                -0.3109618381        3.7679542550        1.1491051335
C                -1.4260216416        3.6285195832        2.0207245754
C                -2.2113907610        2.5130938614        1.9309627635
C                -1.9305934243        1.4800715859        0.9825601868
C                -2.7615222510        0.3638944018        0.8870292998
C                -2.5253246172       -0.6473116917       -0.0450943971
C                -3.4120068149       -1.7646905925       -0.1414595935
C                -3.2031950268       -2.7590398846       -1.0569517701
C                -2.0813804371       -2.6840110746       -1.9268521312
C                -1.2044737308       -1.6314453039       -1.8619951633
C                -1.3755553336       -0.5606395642       -0.9207571957
C                 2.2436293650       -1.3370645165        0.4398667760
C                 2.1611985794       -2.4134072660        1.3395140873
C                 2.3761442569       -2.2256271031        2.6993455352
C                 2.6959716709       -0.9476728796        3.1515344611
F                 2.9089364819       -0.7575327923        4.4679614377
C                 2.8076305729        0.1371783869        2.2895211428
C                 2.5743952828       -0.0659362268        0.9310271855
H                 1.5704668009        0.3240606868       -4.8494434965
H                 0.3623359307        2.1498584938       -3.3298740180
H                -0.4885616741        0.5992621094       -3.5489125637
H                 1.3748297998        1.4603952333       -1.3082094431
H                 0.8441901668        2.9655587938       -0.4180538773
H                 0.3037747552        4.6623513723        1.2055662828
H                -1.6504627228        4.4079523840        2.7433079775
H                -3.0758395683        2.3889282753        2.5788283408
H                -3.6221352337        0.2852598817        1.5480740301
H                -4.2630361411       -1.8008270359        0.5345153539
H                -3.8845153365       -3.6027173901       -1.1223646528
H                -1.9107646481       -3.4753464071       -2.6514370336
H                -0.3591153663       -1.6301600464       -2.5359322721
H                 1.9263627664       -3.3964417759        0.9454669673
H                 2.3046282624       -3.0428435472        3.4095309206
H                 3.0715020694        1.1123633901        2.6844903140
H                 2.6813272365        0.7726997351        0.2517908757



