%chk=calculation/no_transfer_pubchem_sampling_6_b3lyp/75867721_rwf.chk
%rwf=calculation/no_transfer_pubchem_sampling_6_b3lyp/75867721_rwf.rwf
%nprocshared=14
%mem=3GB
#p b3lyp/6-31g(d) 6D 10F nosymm GFInput td=(50-50,nstate=2) SCF=XQC 

Gaussian input prepared by ASE

0 1
C                -3.7164002934       -2.5312281671       -0.3395852187
C                -4.2364354583       -1.6089072364        0.7538917748
O                -5.4029664291       -1.7046089732        1.1214373711
N                -3.3825969268       -0.6831217105        1.3408788132
C                -4.0593280430        0.3876414754        2.0895437919
C                -4.5588253029        1.4609775360        1.1069134077
C                -3.5954471926        1.7283319124       -0.0428121292
C                -3.8778413706        2.7607926072       -0.9442598765
C                -3.0444358409        3.0278176879       -2.0293498521
C                -1.9036805372        2.2517957159       -2.2284323565
C                -1.6093184919        1.2180665429       -1.3392025828
C                -2.4426518553        0.9406422838       -0.2494543620
C                -2.1239459012       -0.1515517948        0.7737780416
C                -1.0844730008       -1.2034473416        0.3583116302
C                 0.3451621540       -0.6840429543        0.5641370327
O                 0.6389350948        0.0896585865        1.4642609046
N                 1.2601628358       -1.2034107077       -0.3232465082
C                 2.6547455920       -1.0055705964       -0.3561830419
C                 3.3749607751       -1.7095824498       -1.3668254792
N                 4.6712408072       -1.6424926422       -1.5438403161
C                 5.3919048465       -0.8418649639       -0.7024636138
C                 6.7963784145       -0.7569694114       -0.8789833888
C                 7.5539928183        0.0401091672       -0.0497553380
C                 6.9388724994        0.7837143943        0.9881687757
C                 5.5770664558        0.7200981584        1.1823049032
C                 4.7678512131       -0.0927394283        0.3442002041
C                 3.3629335252       -0.1901618893        0.5043764621
H                -2.9099529752       -3.1820646073        0.0101367193
H                -4.5565980898       -3.1516628745       -0.6533498270
H                -3.3521711375       -1.9636854538       -1.2027409293
H                -3.3385614368        0.8038261758        2.8008042538
H                -4.8898715378       -0.0446001617        2.6453064317
H                -5.5169207100        1.1243165699        0.6900867363
H                -4.7672494602        2.3943149178        1.6457100363
H                -4.7695544308        3.3648740176       -0.7890771285
H                -3.2845325864        3.8374457293       -2.7132274566
H                -1.2438181904        2.4473479708       -3.0692468489
H                -0.7111088478        0.6291981952       -1.5011413341
H                -1.6385962527        0.3409145554        1.6254713673
H                -1.2236638258       -1.5628033925       -0.6649546911
H                -1.1945465452       -2.0650474302        1.0281918895
H                 0.9004486935       -1.8400714386       -1.0226463221
H                 2.8228681618       -2.3572902831       -2.0531427176
H                 7.2408647137       -1.3371157649       -1.6816915478
H                 8.6298406572        0.1026503737       -0.1879946643
H                 7.5499218214        1.4081581090        1.6341963733
H                 5.1025728658        1.2895056070        1.9776780415
H                 2.8547677253        0.3618453839        1.2838215695



