%chk=./calculation/no_transfer_pubchem_sampling_6_b3lyp/75867721.chk
%nprocshared=7
%mem=6GB
#p b3lyp/6-31g(d) opt SCF=XQC 

Gaussian input prepared by ASE

0 1
C                -3.7062072636       -2.4043526911       -0.4770773018
C                -4.1895751201       -1.6213297232        0.7246654772
O                -5.2956203593       -1.8265716205        1.1879101753
N                -3.3606769425       -0.6950945629        1.2867117304
C                -4.0151271993        0.3290768103        2.0833807700
C                -4.4995878473        1.4392706546        1.1438097304
C                -3.5491209589        1.7113376261        0.0036930122
C                -3.8400979382        2.7497032789       -0.8725663276
C                -3.0132491486        3.0346419429       -1.9426662468
C                -1.8726222443        2.2787870664       -2.1471574850
C                -1.5735422592        1.2385382351       -1.2857986808
C                -2.4067707032        0.9386360293       -0.2174031832
C                -2.1036857436       -0.1689024768        0.7698631564
C                -1.0842171749       -1.2100427930        0.3071586684
C                 0.3329783102       -0.6814645357        0.5304607793
O                 0.6005267139        0.1672160692        1.3483515542
N                 1.2489942913       -1.2934808027       -0.2729256183
C                 2.6322080634       -1.0920012294       -0.3162523071
C                 3.3825925686       -1.9003321618       -1.2055911277
N                 4.6691991650       -1.8239391454       -1.3545223509
C                 5.3567828691       -0.9216549016       -0.6235229756
C                 6.7544861172       -0.8382040769       -0.7818429691
C                 7.4741750148        0.0675780549       -0.0533394846
C                 6.8328458671        0.9232266502        0.8578714326
C                 5.4783686215        0.8651452673        1.0323805476
C                 4.7052505008       -0.0572365171        0.2983461983
C                 3.3073716450       -0.1619899904        0.4383598166
H                -2.9348299177       -3.1183684414       -0.2042711223
H                -4.5596324516       -2.9564930563       -0.8637698810
H                -3.3389743036       -1.7328000901       -1.2487624922
H                -3.3064953170        0.7127318882        2.8203106976
H                -4.8593075450       -0.1254843855        2.6027631410
H                -5.4593960365        1.1364633775        0.7135490958
H                -4.6696941068        2.3593326731        1.7067724966
H                -4.7275883467        3.3430196619       -0.7046299096
H                -3.2542173813        3.8474465753       -2.6112430080
H                -1.2138141880        2.4983668111       -2.9739960019
H                -0.6697938631        0.6697656612       -1.4452778976
H                -1.6175362714        0.3100454514        1.6364243527
H                -1.2134256505       -1.4957034752       -0.7352215600
H                -1.1905291569       -2.0969103853        0.9371500756
H                 0.9146346465       -2.0138790047       -0.8991571838
H                 2.8775880480       -2.6418439593       -1.8160702080
H                 7.2255502773       -1.5048308401       -1.4869406959
H                 8.5455667884        0.1327239137       -0.1730321848
H                 7.4227530990        1.6306124590        1.4220363562
H                 4.9787284625        1.5199714737        1.7316140996
H                 2.7847333697        0.4792752350        1.1294538399



