%chk=./calculation/no_transfer_pubchem_sampling_6_b3lyp/89694695.chk
%nprocshared=7
%mem=6GB
#p b3lyp/6-31g(d) opt SCF=XQC 

Gaussian input prepared by ASE

0 1
C                -8.9199389241       -1.5302085029        1.1482075634
C                -8.7621096972       -0.0312220381        1.4155039802
C                -7.7718221567        0.1706951037        2.5635077080
C               -10.1192513872        0.5606130542        1.7988257677
C                -8.2361886031        0.7285042319        0.1656969649
N                -9.2283641474        0.7212386619       -0.9041355317
C                -6.8901529782        0.2413452779       -0.2754782504
N                -5.7556078548        0.8249912688        0.0002841581
C                -4.7872738424        0.0829296929       -0.6145366032
C                -5.3599081315       -0.9710022121       -1.2844807209
N                -6.7033852825       -0.8668009426       -1.0622069006
C                -4.5964869241       -2.0054029000       -2.0255938490
C                -3.3040181955       -1.3520240625       -2.5335316396
C                -2.6049957106       -0.5070079491       -1.4941740954
C                -1.2270878685       -0.4131686339       -1.4700427498
C                -0.5697607728        0.4203776180       -0.5646890777
C                 0.8977803123        0.4978873610       -0.5532619020
C                 1.5924960224        0.5433511132        0.6723844555
C                 2.9573096812        0.6145912174        0.7029652123
C                 3.6951318060        0.6519116090       -0.4910394949
C                 3.0173835080        0.6097771257       -1.7380087327
C                 3.7446427410        0.6495272196       -2.9580546629
C                 5.1074629872        0.7265428966       -2.9920284474
C                 5.7792548266        0.7661683603       -1.7653797135
N                 7.1097646768        0.8458910848       -1.4421631101
C                 7.1875324422        0.8457471010       -0.0760114491
C                 8.4825908259        0.9353431969        0.6705709012
N                 8.3815036556        1.8125250029        1.8286645831
C                 8.9854973990       -0.4709480129        1.1071037182
C                10.3802565870       -0.3089941712        1.7123055514
C                 9.0591300852       -1.3870399136       -0.1172481373
C                 8.0409314623       -1.0822489199        2.1428027212
N                 6.0111201629        0.7844816153        0.4858468826
C                 5.1048387512        0.7306250515       -0.5367705397
C                 1.6139983635        0.5296117427       -1.7297870969
C                -1.3299875444        1.1799816547        0.3215051127
C                -2.7078601012        1.1017672488        0.3089157559
C                -3.3536156729        0.2611140603       -0.5890797766
H                -7.9597496466       -1.9906844488        0.9246551112
H                -9.3226598728       -2.0173940925        2.0335253052
H                -9.6104336734       -1.7139907179        0.3275592412
H                -8.1218149599       -0.3439054361        3.4555764149
H                -7.6651138910        1.2276664553        2.7924978065
H                -6.7897900148       -0.2148814882        2.3016849280
H               -10.8147588851        0.4728410316        0.9694974136
H               -10.5269747490        0.0403192960        2.6623633891
H               -10.0158236364        1.6136838661        2.0461343081
H                -8.0995071502        1.7741402287        0.4629815534
H                -8.9267897549        1.3256261652       -1.6596229558
H                -9.3547287949       -0.2116625412       -1.2808084877
H                -7.4131462448       -1.4939546283       -1.4041471391
H                -5.1702480205       -2.4105013087       -2.8631473979
H                -4.3549941242       -2.8370506797       -1.3520299201
H                -2.6235329388       -2.1183252639       -2.9086234822
H                -3.5572009805       -0.6937953597       -3.3733247661
H                -0.6411751225       -1.0118724234       -2.1540850949
H                 1.0302646164        0.4996710353        1.5937683013
H                 3.4981139850        0.6419807179        1.6365957392
H                 3.1854242466        0.6167321327       -3.8820815431
H                 5.6524222709        0.7559447873       -3.9243741575
H                 7.8824782547        0.8775049832       -2.0855234607
H                 9.2390992422        1.3630030856       -0.0020080702
H                 7.5979138636        1.5049575001        2.3955050660
H                 8.1695598771        2.7573700783        1.5245120245
H                11.0950814550        0.0065558776        0.9552940034
H                10.3524025576        0.4429936099        2.4953295342
H                10.7188013895       -1.2516708277        2.1352562152
H                 8.0656266278       -1.5931224511       -0.5097854881
H                 9.6620802495       -0.9377222912       -0.9050831815
H                 9.5168606067       -2.3345398514        0.1577486587
H                 8.1357983708       -0.5669862813        3.0944058155
H                 8.2873432537       -2.1304424317        2.2964939492
H                 7.0087257942       -1.0118930674        1.8078984077
H                 1.0919403048        0.5158624452       -2.6765671922
H                -0.8354123905        1.8493886262        1.0101761562
H                -3.3068916168        1.6866883557        0.9895654399



