%chk=calculation/no_transfer_pubchem_sampling_6_b3lyp/92505831_rwf.chk
%rwf=calculation/no_transfer_pubchem_sampling_6_b3lyp/92505831_rwf.rwf
%nprocshared=14
%mem=3GB
#p b3lyp/6-31g(d) 6D 10F nosymm GFInput td=(50-50,nstate=2) SCF=XQC 

Gaussian input prepared by ASE

0 1
C                -8.6220262469       -1.4223823584       -2.9943476493
C                -8.0572641331       -1.4622551999       -1.5846563951
O                -6.7848197035       -0.8235505922       -1.6154244937
C                -6.0761803090       -0.7347372924       -0.4536707951
C                -6.4922506369       -1.2224177482        0.7818938033
C                -5.6796721910       -1.0811527734        1.9168452167
C                -4.4467232727       -0.4445809969        1.8351043801
C                -3.5419760106       -0.2960870037        3.0410746726
C                -2.1925084122       -1.0141071490        2.8312455874
N                -1.2286173256       -0.8277367394        3.9176534436
C                -0.2980181282        0.1554079249        4.0765923282
O                 0.5096377634        0.1446370755        5.0014669304
C                -0.2789921787        1.3075489302        3.0721751305
S                 0.6262341272        1.0693398718        1.4557207910
O                -0.2256160742        0.1886978522        0.5505104580
C                 2.0093825294       -0.0046207204        2.0907230355
C                 3.0487504765       -0.1825045250        1.0418590482
N                 4.2142300452        0.5753765867        1.0469165432
C                 4.8824906821        0.1720178708        0.0039376865
C                 6.1838609308        0.6251218367       -0.4673463749
C                 6.7758757873        0.0932726267       -1.6193985741
C                 8.0225612663        0.5390788886       -2.0574524580
C                 8.6964491336        1.5337014060       -1.3374532538
O                 9.9144829428        2.0430434534       -1.6719847209
C                10.5615681476        1.5405269734       -2.8314269957
C                 8.1089537474        2.0725197628       -0.1798574220
C                 6.8714153416        1.6245361753        0.2481689576
O                 4.2351298079       -0.8036355177       -0.7049188840
C                 3.0536339290       -1.0208382261       -0.0365475083
C                 2.1228929900       -2.0397835501       -0.5865762854
C                -4.0273328698        0.0532366789        0.5854285614
C                -4.8153303813       -0.0881999096       -0.5522934315
O                -4.4721301068        0.3495029446       -1.7945061249
C                -3.2172429413        1.0140770847       -1.9570054375
C                -3.0682913132        1.3452441127       -3.4316745768
H                -8.7311055558       -0.3882767344       -3.3355894732
H                -7.9578134476       -1.9452704244       -3.6894259968
H                -9.6053125122       -1.9046595974       -3.0208841083
H                -8.7223664738       -0.9402176957       -0.8808529414
H                -7.9481842066       -2.4996640826       -1.2351476985
H                -7.4509429732       -1.7194931289        0.8759528181
H                -6.0275528557       -1.4741749734        2.8690281892
H                -3.3484755022        0.7671797747        3.2435942177
H                -4.0356574326       -0.6923977839        3.9366750092
H                -1.7259785592       -0.6964718875        1.8960070217
H                -2.3666917035       -2.0909834438        2.7345680122
H                -1.2071569371       -1.5097155477        4.6662066548
H                 0.2344929294        2.1394695851        3.5609171122
H                -1.2762898153        1.6338057855        2.7638778000
H                 2.4237584884        0.4793865650        2.9787720719
H                 1.5364869065       -0.9465196135        2.3844452903
H                 6.2581484492       -0.6773484220       -2.1812881804
H                 8.4544457074        0.1078003202       -2.9530473781
H                10.7656718783        0.4653075820       -2.7447849515
H                11.5060664809        2.0823922090       -2.9045001859
H                 9.9669966378        1.7237505169       -3.7359589313
H                 8.6479266777        2.8420282721        0.3636599243
H                 6.4151517711        2.0380253721        1.1415770264
H                 1.1684706829       -1.9911903230       -0.0582628268
H                 2.5364076923       -3.0532442356       -0.5027106464
H                 1.9227594372       -1.8497602736       -1.6473650503
H                -3.0600790310        0.5368430679        0.5046199755
H                -2.3977025343        0.3703632286       -1.6104683552
H                -3.2016799348        1.9284869206       -1.3459879531
H                -2.1194623691        1.8644083143       -3.6050990725
H                -3.0805758473        0.4317735246       -4.0346046801
H                -3.8863074607        1.9900723761       -3.7681928871



