%chk=./calculation/no_transfer_pubchem_sampling_6_b3lyp/92505831.chk
%nprocshared=7
%mem=6GB
#p b3lyp/6-31g(d) opt SCF=XQC 

Gaussian input prepared by ASE

0 1
C                -7.8804266620       -1.4902602224       -3.3663798532
C                -7.4155057062       -1.6368942388       -1.9256808650
O                -6.2546875400       -0.8502386398       -1.7710422167
C                -5.6455192296       -0.8126012858       -0.5549832772
C                -6.0635426150       -1.4935201664        0.5735177379
C                -5.3575108852       -1.3935028768        1.7670157701
C                -4.2355961964       -0.5962177596        1.8546504570
C                -3.4342760233       -0.4873586363        3.1231211426
C                -2.0113214719       -1.0239612484        2.8925759232
N                -1.1136561368       -0.7513302116        3.9928301814
C                -0.3655858292        0.3486148890        4.2106165128
O                 0.3545369555        0.4381945131        5.1870550012
C                -0.4477823810        1.4724058037        3.2011137773
S                 0.5179223172        1.2769185111        1.6110610128
O                -0.3154936504        0.4498766910        0.7240398219
C                 1.8214084445        0.1290883685        2.2722614682
C                 2.7860205035       -0.1332187430        1.1852396486
N                 3.9492984750        0.5716212926        1.0555936925
C                 4.5261962178        0.1026505913       -0.0144191737
C                 5.7921772971        0.5271263909       -0.5620257406
C                 6.3068016244       -0.0538815376       -1.7174125779
C                 7.5205313950        0.3566622481       -2.2349584380
C                 8.2436763040        1.3624649527       -1.5996411413
O                 9.4435091885        1.8426714768       -2.0185234121
C                10.0220815794        1.3004472573       -3.1812113722
C                 7.7268570192        1.9469911684       -0.4381240533
C                 6.5199667475        1.5368725925        0.0741316764
O                 3.8057653204       -0.8747409298       -0.6116389196
C                 2.6927330334       -1.0220128141        0.1469851775
C                 1.6596451545       -2.0175298185       -0.2306627326
C                -3.8169541029        0.1056979765        0.7244931167
C                -4.4888275380       -0.0009534691       -0.4780601949
O                -4.1241896635        0.6206749252       -1.6272340425
C                -2.9369888442        1.3918976947       -1.6336526285
C                -2.6940801956        1.8449595751       -3.0646952485
H                -8.0936774275       -0.4467728581       -3.5801665443
H                -7.0992308015       -1.8272468103       -4.0418163899
H                -8.7771520962       -2.0813966102       -3.5300866447
H                -8.2016764411       -1.2943942511       -1.2370285980
H                -7.1929606163       -2.6910734035       -1.7046187609
H                -6.9407166284       -2.1198927978        0.5403503611
H                -5.7013596462       -1.9460440315        2.6288139829
H                -3.3772499066        0.5591353869        3.4348449963
H                -3.9181657946       -1.0461764474        3.9258791408
H                -1.6010094548       -0.5919164692        1.9797929462
H                -2.0553020054       -2.1064504352        2.7525324270
H                -1.1038794417       -1.4126765243        4.7569654778
H                -0.0192944029        2.3612404414        3.6620151063
H                -1.4714651564        1.6724243974        2.8924450350
H                 2.3016749094        0.6357442273        3.1045158874
H                 1.3245839861       -0.7835093432        2.5943896109
H                 5.7496265718       -0.8341703905       -2.2134148104
H                 7.8923979452       -0.1133989844       -3.1317626042
H                10.2259480724        0.2308851067       -3.0677690551
H                10.9621101669        1.8326495673       -3.3177500955
H                 9.3865654688        1.4592277340       -4.0582975513
H                 8.3023533850        2.7240880711        0.0391992242
H                 6.1138744485        1.9802923715        0.9686597430
H                 0.6748896591       -1.5571414527       -0.1874540543
H                 1.6772317937       -2.8683271649        0.4512615999
H                 1.8493984179       -2.3725608569       -1.2395967443
H                -2.9411196358        0.7299694451        0.7888609756
H                -2.0883767549        0.7959498859       -1.2730025593
H                -3.0535496786        2.2653237874       -0.9758172139
H                -1.7905340050        2.4459677461       -3.1129674530
H                -2.5837576029        0.9795716795       -3.7120445923
H                -3.5373542337        2.4330676634       -3.4163840735



