%chk=./calculation/no_transfer_pubchem_sampling_6_b3lyp/92569305.chk
%nprocshared=7
%mem=6GB
#p b3lyp/6-31g(d) opt SCF=XQC 

Gaussian input prepared by ASE

0 1
C                 7.8505765240       -1.7278164865        1.3354469220
C                 6.4077269086       -1.8260660134        0.8652160129
O                 5.8459481866       -0.5311936264        0.9304168171
C                 4.5494330057       -0.3563250192        0.5559845145
C                 4.0606362630        0.9464730620        0.6373516148
C                 2.7588742516        1.2356538797        0.2830076485
C                 1.8978110363        0.2363776839       -0.1537326976
C                 0.4633541630        0.5022784724       -0.5978812665
N                -0.1954819225        1.6800080914       -0.0601586666
C                 0.0690923060        2.9797780982       -0.6334092465
C                -1.2185403938        3.7653508028       -0.7032061426
C                -1.3568519022        4.9890600247       -0.0636691273
C                -2.5531288438        5.6845079710       -0.1110313203
C                -3.6127581499        5.1323336316       -0.8041153371
F                -4.7858714446        5.8020759005       -0.8537548593
C                -3.5075723358        3.9125986920       -1.4486589408
C                -2.3039772663        3.2365992743       -1.3927802516
C                -0.3489417101        1.6489630147        1.3787674114
C                -1.1848408594        0.4267350588        1.7546709657
C                -0.5579712577       -0.8169616055        1.1177501469
N                -0.3419115270       -0.6734770381       -0.3135226624
C                -1.5696333719       -0.7371419689       -1.0932067753
C                -2.2197232549       -2.0860727458       -0.9461783621
C                -1.4884120790       -3.2372629728       -1.2153572565
C                -2.0751784879       -4.4803206925       -1.0791003129
C                -3.3968806008       -4.5877386981       -0.6790470945
C                -4.1443123350       -3.4510187376       -0.4075127685
C                -5.5805403756       -3.5489410992        0.0108838987
C                -3.5399023435       -2.2064401311       -0.5429360965
C                 2.3965843944       -1.0563148181       -0.2453920687
C                 3.6998978590       -1.3603476545        0.1039953594
H                 7.8832394129       -1.3524248619        2.3545533693
H                 8.4021588157       -1.0430005768        0.6972127696
H                 8.3195481782       -2.7069670456        1.2995014796
H                 6.3704730893       -2.2025954290       -0.1668747806
H                 5.8448968379       -2.5153555052        1.5105941311
H                 4.7259404116        1.7229905467        0.9811572946
H                 2.4251772857        2.2581898774        0.3505182114
H                 0.4862019887        0.6245279097       -1.6920951584
H                 0.4615631377        2.8377040309       -1.6448389142
H                 0.8100468630        3.5610177697       -0.0616130111
H                -0.5213043190        5.4092060457        0.4776698409
H                -2.6706183552        6.6368724767        0.3815233454
H                -4.3561127756        3.5126107725       -1.9812824806
H                -2.1974243884        2.2823561549       -1.8849673244
H                 0.6230565739        1.6005106640        1.8995672925
H                -0.8600192234        2.5645206313        1.6888789440
H                -1.2240663318        0.3133655637        2.8385939017
H                -2.2031398485        0.5600151698        1.3869491748
H                -1.1864215240       -1.6947548253        1.2823996472
H                 0.4184217214       -1.0009189016        1.5761488485
H                -2.2837263336        0.0555583891       -0.8247971201
H                -1.2897930424       -0.5945325023       -2.1432979335
H                -0.4583753879       -3.1445977207       -1.5234692669
H                -1.5034554183       -5.3733813657       -1.2864637762
H                -3.8503772028       -5.5633219586       -0.5759066455
H                -5.7913295342       -2.8626537015        0.8288895884
H                -6.2314958195       -3.2840880343       -0.8227785782
H                -5.8265188831       -4.5595740047        0.3272384689
H                -4.1153106840       -1.3156116373       -0.3286730405
H                 1.7412064120       -1.8404395751       -0.5909280233
H                 4.0400519073       -2.3805797063        0.0177466874



