%chk=calculation/no_transfer_pubchem_sampling_6_b3lyp/92684075_rwf.chk
%rwf=calculation/no_transfer_pubchem_sampling_6_b3lyp/92684075_rwf.rwf
%nprocshared=14
%mem=3GB
#p b3lyp/6-31g(d) 6D 10F nosymm GFInput td=(50-50,nstate=2) SCF=XQC 

Gaussian input prepared by ASE

0 1
C                -7.5348371146        1.0855944777       -3.2290608909
O                -6.1586184775        1.1164831523       -2.8868012653
C                -5.6978296024        0.1868242359       -2.0087419478
C                -6.4705072209       -0.8032668328       -1.4073964024
C                -5.8931970495       -1.7229074975       -0.5213296918
C                -4.5379516284       -1.6422459023       -0.2193562010
S                -3.8441595693       -2.7991061350        0.9668787128
C                -2.6822772564       -3.7773194568       -0.0766834060
C                -1.2903355831       -3.1981639329       -0.3797608286
O                -0.6667068543       -3.6182517833       -1.3462556797
N                -0.8330894145       -2.2716116699        0.5154112489
C                 0.4108549660       -1.6003583018        0.5430301197
C                 0.6251778758       -0.6710144483        1.5662695561
C                 1.8250673442        0.0353290316        1.6637742900
C                 2.8369705650       -0.1862389787        0.7237493483
O                 4.0500632425        0.4468243875        0.7138579823
C                 4.3475686714        1.3555018413        1.7707248357
C                 5.7606590587        1.8606119224        1.6033180739
C                 6.0612441122        3.2025964321        1.8566104715
C                 7.3740346691        3.6679772903        1.7591291126
C                 8.3988237360        2.7941465296        1.3954845942
C                 8.1041378027        1.4539943411        1.1323574685
C                 6.7943679932        0.9884993158        1.2396368926
C                 2.6231549645       -1.1156143611       -0.3032676852
C                 1.4295672908       -1.8189664561       -0.4012495647
C                -3.7501645030       -0.6346752826       -0.8079910111
C                -4.3109864122        0.2663821133       -1.7076766646
O                -3.6314457027        1.2599467626       -2.3395581007
C                -2.2344690776        1.3655519727       -2.1060940987
H                -7.6837424640        1.9048971375       -3.9344130895
H                -8.1731933764        1.2424714492       -2.3493715543
H                -7.8097386987        0.1373940005       -3.7098910873
H                -7.5285694192       -0.8787551514       -1.6300300031
H                -6.5057824649       -2.4989065294       -0.0742345644
H                -2.5388653562       -4.7249192793        0.4564244097
H                -3.1536215794       -4.0096468825       -1.0334999405
H                -1.4934927659       -2.0193749087        1.2441946333
H                -0.1534090562       -0.4923468685        2.3051910975
H                 1.9508029667        0.7482293075        2.4702852074
H                 3.6383106462        2.1955542450        1.7629422190
H                 4.2348008497        0.8377425297        2.7364207335
H                 5.2636550164        3.8906132030        2.1289315873
H                 7.5922987775        4.7139251864        1.9577255317
H                 9.4205689641        3.1549455491        1.3127027059
H                 8.8972106831        0.7692619290        0.8434560579
H                 6.5629638341       -0.0507508512        1.0272324538
H                 3.4165288346       -1.2772072577       -1.0265192033
H                 1.2729233127       -2.5356009919       -1.1954504099
H                -2.6990504503       -0.5648478923       -0.5591035005
H                -2.0165664632        1.5850359880       -1.0525332797
H                -1.8930001168        2.1963450239       -2.7256984714
H                -1.7061444994        0.4494162969       -2.3996978020



