%chk=calculation/no_transfer_pubchem_sampling_6_b3lyp/95298436_rwf.chk
%rwf=calculation/no_transfer_pubchem_sampling_6_b3lyp/95298436_rwf.rwf
%nprocshared=14
%mem=3GB
#p b3lyp/6-31g(d) 6D 10F nosymm GFInput td=(50-50,nstate=2) SCF=XQC 

Gaussian input prepared by ASE

0 1
C                 1.8875937879        0.2902133243        2.8784658049
C                 0.6861584414        1.0340586930        2.2776191593
N                -0.3376007377        0.0806857130        1.8292292752
C                -1.6745423564        0.6723239850        1.6142738059
C                -1.9230797267        1.0993159971        0.1760339933
C                -1.9968350193        2.4577287225       -0.1451638508
C                -2.2273929910        2.8846417826       -1.4553346909
C                -2.3873031822        1.9450254927       -2.4704627769
C                -2.3173185219        0.5840327081       -2.1630423844
C                -2.0931157486        0.1471437899       -0.8536811330
C                -2.0347888066       -1.3432067823       -0.5718920227
N                -3.2147774120       -1.8584821711        0.1271531428
C                -4.5084174056       -1.8458536937       -0.2889131610
C                -5.2541181095       -2.4724203574        0.6919396296
C                -4.3073730832       -2.8316547584        1.6743498937
N                -3.0715397836       -2.4620208231        1.3328935343
C                 1.1329049736        2.0288502894        1.1831377077
O                 1.0732459105        3.2345092603        1.4094086309
N                 1.6538632030        1.5734762478        0.0016730033
C                 1.7090373032        0.2307347031       -0.5554499879
C                 3.1120009711       -0.2360528850       -0.9153803311
C                 3.2730038084       -1.2306839113       -1.8893758332
C                 4.5392627470       -1.7154248162       -2.2145866762
C                 5.6703590241       -1.2035991180       -1.5745089888
C                 5.5214853522       -0.2067212462       -0.6100083794
C                 4.2512484950        0.2730099836       -0.2823769460
H                 1.5664103131       -0.3060951657        3.7415730818
H                 2.6363602599        1.0072211722        3.2297204640
H                 2.3654679094       -0.3820039813        2.1599537359
H                 0.2837618374        1.7062138354        3.0525319648
H                -0.4208722275       -0.6515699122        2.5311503878
H                -1.8337570735        1.5407091746        2.2734763525
H                -2.4073183164       -0.0868638164        1.9005274405
H                -1.8441628512        3.1928655385        0.6405546822
H                -2.2737782084        3.9472778912       -1.6775087435
H                -2.5636390113        2.2630585580       -3.4944953222
H                -2.4389662686       -0.1531982285       -2.9545292504
H                -1.9182100080       -1.8940830025       -1.5123459547
H                -1.1911298723       -1.5872398921        0.0752475936
H                -4.7923134715       -1.3915106631       -1.2274655224
H                -6.3212146293       -2.6416714120        0.6955252914
H                -4.4695525455       -3.3426747974        2.6146940794
H                 1.9062235356        2.3366478019       -0.6170897418
H                 1.0738934827        0.1864359804       -1.4514000379
H                 1.2442445098       -0.4423888175        0.1678943917
H                 2.3968740571       -1.6276367803       -2.3989409476
H                 4.6439368960       -2.4866579860       -2.9734028464
H                 6.6589628190       -1.5750768627       -1.8305988128
H                 6.3958641623        0.2027106174       -0.1105386891
H                 4.1409515683        1.0559026186        0.4622229846



