%chk=calculation/no_transfer_pubchem_sampling_6_b3lyp/98454275_rwf.chk
%rwf=calculation/no_transfer_pubchem_sampling_6_b3lyp/98454275_rwf.rwf
%nprocshared=14
%mem=3GB
#p b3lyp/6-31g(d) 6D 10F nosymm GFInput td=(50-50,nstate=2) SCF=XQC 

Gaussian input prepared by ASE

0 1
C                 6.2257518551        2.7637894255       -1.3469992349
O                 4.9479650579        2.2312966435       -1.6599253370
C                 4.0817707918        1.9798349601       -0.6378653736
C                 4.3593920543        2.2118742608        0.7165261349
C                 3.3904417541        1.9128024858        1.6781834305
C                 2.1508798312        1.3988239018        1.3130370819
C                 1.8697560311        1.1650057984       -0.0455150644
C                 0.5717957641        0.6030359824       -0.5393001510
O                 0.4511708653        0.2453097153       -1.7043920121
C                -0.6143965571        0.4562663961        0.4176777342
C                -1.9957808257        0.8366396161       -0.2254358655
C                -1.9468965058        1.7386181486       -1.4825587900
O                -2.4837087765        1.3867989723       -2.5152944019
C                -1.3085198207        3.0930879585       -1.3721410282
C                -1.0074685067        3.7682891242       -2.5660433360
C                -0.4304515319        5.0335191839       -2.5362086941
C                -0.1595607226        5.6507373355       -1.3108764565
C                -0.4665278659        4.9950314948       -0.1182575947
C                -1.0332952337        3.7201542252       -0.1473353965
N                -2.6799244588       -0.4193588523       -0.4750421333
C                -4.0459066984       -0.4968189791       -0.3409425246
C                -4.7065376632       -1.6468524980       -0.0958697384
C                -3.9643269452       -2.8796478223        0.0855959061
C                -4.6135737277       -4.1036361770        0.3256638853
C                -3.8973482973       -5.2898012836        0.4533060045
C                -2.5075904739       -5.2781469414        0.3269845735
C                -1.8467647668       -4.0697643168        0.0937808237
C                -2.5510638031       -2.8669020705       -0.0058535739
C                -1.8020495706       -1.5659615075       -0.2645105771
C                -0.8125053581       -1.0384045464        0.8634531456
C                -1.4941120659       -1.0339223717        2.2534429368
O                -2.4445963119       -0.3604010170        2.6083423241
N                -0.7864654940       -1.9093473894        3.0514149937
C                 0.3377313543       -2.4321960546        2.4027750297
C                 1.2805490915       -3.3257776136        2.8950568528
C                 2.3170237454       -3.7151182701        2.0381806476
C                 2.3925263296       -3.2247185774        0.7337091777
C                 1.4298664860       -2.3252907606        0.2531867888
C                 0.4012369690       -1.9143421960        1.0955071901
C                 2.8413026691        1.4529424243       -1.0091239582
H                 6.1463939396        3.7423442414       -0.8550672048
H                 6.7412250343        2.8816691007       -2.3015929104
H                 6.8015773535        2.0828649440       -0.7062175948
H                 5.3145630858        2.6181431031        1.0291165397
H                 3.6150464042        2.0861481036        2.7269623396
H                 1.4276554871        1.1614899654        2.0846448546
H                -0.4600264706        1.0762380361        1.3002524045
H                -2.5562815313        1.3909231799        0.5392117722
H                -1.2363629124        3.2753080042       -3.5051021743
H                -0.1934298183        5.5429129952       -3.4663292700
H                 0.2864296885        6.6415522303       -1.2870517016
H                -0.2676686248        5.4752873405        0.8358496867
H                -1.2788306861        3.2327561620        0.7912635137
H                -4.5633004286        0.4479823245       -0.4739957136
H                -5.7892341260       -1.6544429927       -0.0453060793
H                -5.6984386930       -4.1113674354        0.4029644457
H                -4.4236508915       -6.2236219711        0.6349622888
H                -1.9385977433       -6.2010405484        0.3974421218
H                -0.7675676817       -4.0712474611       -0.0225649665
H                -1.1599314858       -1.6897158504       -1.1483352391
H                -1.0528016571       -2.0919588793        4.0090225747
H                 1.2132978755       -3.7156389721        3.9067751322
H                 3.0680510869       -4.4132562456        2.3975250505
H                 3.2012182597       -3.5415266991        0.0819173573
H                 1.4925454226       -1.9592215102       -0.7662514098
H                 2.6283354447        1.2699710265       -2.0562222371



