%chk=./calculation/no_transfer_pubchem_sampling_6_b3lyp/98454275.chk
%nprocshared=7
%mem=6GB
#p b3lyp/6-31g(d) opt SCF=XQC 

Gaussian input prepared by ASE

0 1
C                 5.5353855288        3.8360218554       -1.1852277531
O                 4.3322225075        3.1867916158       -1.5228464047
C                 3.6814001213        2.4799387558       -0.5657022236
C                 4.1043628639        2.3382716698        0.7528722321
C                 3.3500453306        1.5891483350        1.6431570630
C                 2.1617997122        1.0032635688        1.2577281957
C                 1.7273608029        1.1458089300       -0.0605135394
C                 0.4532147302        0.5806158921       -0.5601443417
O                 0.3071074651        0.2490225654       -1.7152237366
C                -0.6780490225        0.4689996971        0.4498682770
C                -2.0429467627        0.8836727429       -0.1668890462
C                -1.9217656881        1.6787353053       -1.4752122848
O                -2.5759511488        1.3897413839       -2.4449704049
C                -0.9911782839        2.8370190090       -1.4526112719
C                -0.4329433146        3.2294287040       -2.6690060098
C                 0.4894720129        4.2563380615       -2.7196973079
C                 0.8559025692        4.9147590208       -1.5569937321
C                 0.2841820512        4.5518062865       -0.3486454093
C                -0.6327459614        3.5181979337       -0.2914637276
N                -2.7908960186       -0.3361639827       -0.3622941980
C                -4.0987606180       -0.4239758906        0.0017090693
C                -4.7056423942       -1.5876163921        0.2861375907
C                -3.9500027686       -2.8119439576        0.3104686782
C                -4.5374831126       -4.0386640985        0.6241741979
C                -3.7930482091       -5.2009176085        0.6274120664
C                -2.4477964780       -5.1626768111        0.2990481127
C                -1.8489063207       -3.9521845932       -0.0109140580
C                -2.5811531056       -2.7764885032        0.0073478205
C                -1.9026287592       -1.4666887384       -0.2759940073
C                -0.8939586484       -1.0065912189        0.8465955369
C                -1.6007473678       -1.0864783315        2.2022256217
O                -2.5225713025       -0.4087997127        2.5889119748
N                -0.9733115006       -2.0581482663        2.9240343884
C                 0.1426521213       -2.5553008390        2.2679852233
C                 1.0421631566       -3.5082771013        2.6989729849
C                 2.1010812266       -3.8214128483        1.8580776137
C                 2.2415782969       -3.2006108081        0.6280997610
C                 1.3260879102       -2.2490981370        0.1957418181
C                 0.2771198866       -1.9139643036        1.0283600800
C                 2.4995829674        1.8596205184       -0.9657320443
H                 5.3812123361        4.5865557226       -0.4033500195
H                 5.8683042824        4.3295758609       -2.0966615455
H                 6.3002981969        3.1233572142       -0.8612197637
H                 5.0174671239        2.7976902277        1.0968694937
H                 3.6999879295        1.4722490913        2.6580244890
H                 1.6004849015        0.4119367718        1.9640004674
H                -0.4561522926        1.0718294151        1.3310176650
H                -2.5845568646        1.5263862333        0.5396085531
H                -0.7265722719        2.6967199642       -3.5607161350
H                 0.9260546394        4.5435816204       -3.6644819702
H                 1.5804445715        5.7145657984       -1.5931149918
H                 0.5545158805        5.0762107377        0.5561771381
H                -1.0840641365        3.2662879653        0.6560559971
H                -4.6327696286        0.5147107826       -0.0007961522
H                -5.7582626442       -1.6185185910        0.5100093381
H                -5.5901246973       -4.0656953415        0.8663534068
H                -4.2625392139       -6.1421896847        0.8748666355
H                -1.8640959557       -6.0708760208        0.2782957446
H                -0.8022133595       -3.9286542049       -0.2770185692
H                -1.3128731278       -1.5326398158       -1.2034132892
H                -1.2708380798       -2.3450822580        3.8429314054
H                 0.9230577091       -3.9964565267        3.6538814569
H                 2.8211930277       -4.5634316346        2.1680621914
H                 3.0701460280       -3.4640288546       -0.0111330414
H                 1.4394012523       -1.7933518833       -0.7745477542
H                 2.1722649181        1.9580687018       -1.9883405549



