%chk=calculation/no_transfer_pubchem_sampling_5_b3lyp/100195160_rwf.chk
%rwf=calculation/no_transfer_pubchem_sampling_5_b3lyp/100195160_rwf.rwf
%nprocshared=14
%mem=3GB
#p b3lyp/6-31g(d) 6D 10F nosymm GFInput td=(50-50,nstate=2) SCF=XQC 

Gaussian input prepared by ASE

0 1
C                -1.3895365863       -2.8454144119        2.9908570087
C                -1.4903411800       -3.4240007260        1.5757197788
C                -1.0427955490       -2.4715887765        0.4383202347
N                 0.3734582316       -2.1379759413        0.5811158274
C                 1.2591965479       -2.2518010093       -0.4448586002
O                 0.9968913078       -2.7286906632       -1.5438115096
C                 2.6904022538       -1.7532201782       -0.1091464360
C                 3.7255933819       -2.4960917710       -0.9490140704
N                 2.8126151887       -0.2738241040       -0.2836929735
C                 2.7546157044        0.3180862135       -1.5874169704
C                 3.9275846541        0.5967781737       -2.2982889282
C                 3.8748382819        1.1563467463       -3.5747690012
C                 2.6376228543        1.4492729303       -4.1521818266
C                 1.4558698809        1.1855292301       -3.4595312433
C                 1.5286509016        0.6269379216       -2.1901920908
F                 0.3945301399        0.3806607142       -1.5211043144
S                 2.5561666339        0.7345584711        1.0489292364
C                 4.2211945526        1.2041407088        1.5648132590
O                 1.8776458394        1.9529466513        0.6100572896
O                 1.9966191690       -0.0989471248        2.1288745138
C                -1.9500542731       -1.2490793982        0.3113732446
C                -3.1663862348       -1.3750051049       -0.3748404589
C                -4.0282592215       -0.2901202797       -0.4878696865
C                -3.7131891815        0.9568505849        0.0710208564
C                -2.4967294868        1.0955818690        0.7591735311
C                -1.6406684061       -0.0096299762        0.8717899584
C                -2.0577881093        2.4278051925        1.3448738020
C                -3.1974947601        3.4478802042        1.4657433491
C                -4.0292785817        3.4816602469        0.1786595833
C                -4.6856285807        2.1163576808       -0.0640598022
H                -1.7483920559       -3.5720522986        3.7282414208
H                -0.3547730587       -2.5985754701        3.2581539403
H                -1.9903518398       -1.9358049984        3.0952877286
H                -2.5295007787       -3.7143722836        1.3759371827
H                -0.8858498730       -4.3374176548        1.5047471447
H                -1.1005008066       -3.0278145474       -0.5015003447
H                 0.6787793475       -1.6223070681        1.3990651016
H                 2.8823482346       -1.9381530418        0.9498549502
H                 3.6744965193       -3.5655860579       -0.7218722872
H                 4.7347040499       -2.1374114254       -0.7222598615
H                 3.5228923011       -2.3778925307       -2.0150248983
H                 4.8813269622        0.3586260591       -1.8369135050
H                 4.7941150510        1.3618889918       -4.1146231012
H                 2.5885204779        1.8850243443       -5.1459375044
H                 0.4805084767        1.4037382709       -3.8811474556
H                 4.7001627602        1.7360067060        0.7408878157
H                 4.1188320695        1.8601480004        2.4324151816
H                 4.7776112462        0.3033601375        1.8293594922
H                -3.4306762271       -2.3247496720       -0.8359187060
H                -4.9634190341       -0.4037015882       -1.0336075993
H                -0.6997947140        0.1310538119        1.3968807426
H                -1.5895140395        2.2622382619        2.3234872947
H                -1.2621743828        2.8414282395        0.7076115190
H                -3.8510420248        3.1780019395        2.3079305033
H                -2.7865020604        4.4395203460        1.6912856757
H                -3.3763627856        3.7347767939       -0.6687296719
H                -4.7987736021        4.2618109147        0.2306418696
H                -5.1572667590        2.0882514874       -1.0550147745
H                -5.5047488273        1.9839602581        0.6602165855



