%chk=calculation/no_transfer_pubchem_sampling_5_b3lyp/100222520_rwf.chk
%rwf=calculation/no_transfer_pubchem_sampling_5_b3lyp/100222520_rwf.rwf
%nprocshared=14
%mem=3GB
#p b3lyp/6-31g(d) 6D 10F nosymm GFInput td=(50-50,nstate=2) SCF=XQC 

Gaussian input prepared by ASE

0 1
C                -6.6085601620       -1.8719653456       -2.6687704220
C                -5.3886494717       -2.6753032579       -2.2000014567
C                -4.8475429069       -2.2689728087       -0.8190779866
C                -4.2347988436       -0.8620625341       -0.7872995459
N                -3.7036331317       -0.5096854672        0.5269832179
C                -2.3747656385       -0.3702716622        0.7707951329
O                -1.5103320232       -0.5796002905       -0.0763365382
C                -1.9455243935        0.0344552410        2.2120163678
C                -3.0650493466        0.1308308941        3.2571955922
N                -1.1039386507        1.2374608484        2.1752461195
C                -1.7479952707        2.5603475093        2.1510348004
C                -2.5350035939        2.8748597138        0.8909351793
C                -1.9161985774        2.8322402110       -0.3680182341
C                -2.6268729347        3.1418417965       -1.5250525057
C                -3.9660798840        3.5038795851       -1.4133549512
F                -4.6598990810        3.8031077420       -2.5331836856
C                -4.6099171086        3.5678308807       -0.1848113719
C                -3.8814246368        3.2492217444        0.9639817165
C                 0.2643463874        1.1963629430        1.9505798756
O                 0.9026394508        2.2280151235        1.7588693762
C                 0.9651391981       -0.1630017906        1.9919888411
C                 2.4746761541       -0.0707654208        1.7352018914
C                 2.8247192632        0.3236890206        0.2894540392
N                 4.2240781508        0.0889779789       -0.0345820973
C                 5.1940250176        1.1197187601       -0.0816898605
O                 4.9702131046        2.2995921885        0.1195172993
C                 6.4815671336        0.4348646846       -0.4264753424
C                 7.7769527148        0.8653522421       -0.6252966985
C                 8.7501211604       -0.1148147211       -0.9549904119
C                 8.4397618640       -1.4641878395       -1.0833472510
C                 7.1094068253       -1.9256166780       -0.8845293076
C                 6.5899515690       -3.2531004948       -0.9759045617
C                 5.2446447301       -3.4728547000       -0.7469080344
C                 4.3185689689       -2.4354541863       -0.4138396713
C                 4.8069045880       -1.1507288738       -0.3186732306
C                 6.1838067212       -0.9263427800       -0.5567381169
H                -6.3763550539       -0.8098379049       -2.8059986113
H                -7.4297248302       -1.9423585732       -1.9441697641
H                -6.9801883667       -2.2497028619       -3.6277939765
H                -4.5829943898       -2.5881288292       -2.9423528265
H                -5.6549309528       -3.7396228473       -2.1661690305
H                -4.0756137947       -2.9822523248       -0.5038663919
H                -5.6564457261       -2.3343595998       -0.0758548414
H                -3.3966636639       -0.7953384069       -1.4849993803
H                -4.9716206388       -0.1032301489       -1.0745613107
H                -4.3617247719       -0.2540102710        1.2474781643
H                -1.3025348277       -0.7898395887        2.5266018370
H                -2.6410128095        0.3879574673        4.2327945727
H                -3.8184124418        0.8868100832        3.0128878157
H                -3.5684725895       -0.8367472725        3.3562566249
H                -0.9316554633        3.2754895691        2.2682025420
H                -2.4002837317        2.6565134256        3.0251883720
H                -0.8695835427        2.5535524052       -0.4383998655
H                -2.1597077119        3.1116272122       -2.5039556584
H                -5.6528999964        3.8640643752       -0.1379268220
H                -4.3722622128        3.3061624103        1.9336837190
H                 0.4946276933       -0.8213329958        1.2536993759
H                 0.7951716502       -0.6170611151        2.9786982771
H                 2.9332433718        0.6502202875        2.4191062388
H                 2.9122779896       -1.0532477741        1.9525071072
H                 2.2065715306       -0.2396058115       -0.4221642317
H                 2.6369379069        1.3875720430        0.1394244880
H                 8.0502046177        1.9125962193       -0.5354355844
H                 9.7767533990        0.2037475676       -1.1146651527
H                 9.2238909687       -2.1726638857       -1.3399961374
H                 7.2461668577       -4.0824323426       -1.2252412876
H                 4.8590851981       -4.4864195570       -0.8215593293
H                 3.2728209864       -2.6760452114       -0.2502330997



