%chk=./calculation/no_transfer_pubchem_sampling_5_b3lyp/100222520.chk
%nprocshared=7
%mem=6GB
#p b3lyp/6-31g(d) opt SCF=XQC 

Gaussian input prepared by ASE

0 1
C                -5.9026325799       -1.6067292074       -2.9691269825
C                -4.9663221394       -2.5486810572       -2.2208363922
C                -4.6300559047       -2.0674320058       -0.8093475455
C                -3.7919315303       -0.7893706412       -0.8122993700
N                -3.4109602328       -0.4052672324        0.5303255430
C                -2.1342345657       -0.3572188708        0.9392838170
O                -1.1955255250       -0.6311116537        0.2156138319
C                -1.8754235719        0.0521860729        2.4075928194
C                -3.1137906226        0.1663175105        3.2944309726
N                -1.0734654194        1.2667855087        2.4335831396
C                -1.7624486170        2.5385651145        2.2600324271
C                -2.4432767678        2.6307191886        0.9217315608
C                -1.6971504597        2.4419082588       -0.2376349954
C                -2.3002961042        2.4790885821       -1.4795137295
C                -3.6608497425        2.7196187429       -1.5487963696
F                -4.2677591769        2.7351426192       -2.7566732566
C                -4.4247593064        2.9345866570       -0.4174010588
C                -3.8042172178        2.8856201387        0.8189785227
C                 0.2924484235        1.2913307634        2.3881197271
O                 0.8921380826        2.3474486981        2.3775109280
C                 1.0147047087       -0.0442496929        2.3824796653
C                 2.4908390600        0.1302276878        2.0327832107
C                 2.6653508658        0.6313125959        0.5928102983
N                 3.9737723874        0.3203673689        0.0769914418
C                 5.0104005003        1.2408779904       -0.0260765064
O                 4.9176927811        2.4146790505        0.2519210071
C                 6.1789928358        0.4793185378       -0.5443806269
C                 7.4775840261        0.7781874699       -0.8706725674
C                 8.2906484925       -0.2678801071       -1.3476663495
C                 7.8415865649       -1.5603099357       -1.5001391883
C                 6.5097566086       -1.8977762177       -1.1746893093
C                 5.8481696262       -3.1461385204       -1.2599327925
C                 4.5289738976       -3.2457537840       -0.8928968242
C                 3.7620778624       -2.1595652981       -0.4177798106
C                 4.3815806326       -0.9407518779       -0.3207728797
C                 5.7344696580       -0.8400348292       -0.7026681289
H                -5.4278268834       -0.6486148369       -3.1616692934
H                -6.8107659585       -1.4349898412       -2.3950145495
H                -6.1821686251       -2.0405924576       -3.9260156172
H                -4.0411899792       -2.6688686281       -2.7873898008
H                -5.4389607732       -3.5305419431       -2.1459490657
H                -4.0694266569       -2.8477284476       -0.2896599169
H                -5.5563609143       -1.8926463539       -0.2554375697
H                -2.8657672826       -0.9430739952       -1.3694165140
H                -4.3508377915        0.0313544324       -1.2682500030
H                -4.1569661975       -0.1662806123        1.1611164915
H                -1.2587898010       -0.7507389859        2.8242126807
H                -2.8068770516        0.4592281700        4.2965077582
H                -3.8251192796        0.9010955586        2.9278688973
H                -3.6041839624       -0.8024144120        3.3621115060
H                -0.9798198918        3.3017537479        2.3293022382
H                -2.4725325524        2.6988379858        3.0747284497
H                -0.6366503346        2.2589010995       -0.1605705049
H                -1.7343350633        2.3254959744       -2.3840072548
H                -5.4811209209        3.1328804118       -0.5105145809
H                -4.3898314293        3.0603782506        1.7109131150
H                 0.5507753793       -0.6994079808        1.6447354003
H                 0.9249399878       -0.4958184101        3.3745967727
H                 2.9546863203        0.8393998759        2.7188997026
H                 2.9930304214       -0.8345472424        2.1387124060
H                 1.9134426964        0.1693273119       -0.0561096144
H                 2.5499282666        1.7166019418        0.5627460574
H                 7.8739805467        1.7767191797       -0.7700032626
H                 9.3149256714       -0.0386191795       -1.6054915352
H                 8.5098825468       -2.3238616136       -1.8721984364
H                 6.3825704552       -4.0142726426       -1.6159200604
H                 4.0385171287       -4.2060381110       -0.9680612099
H                 2.7267663989       -2.3089398716       -0.1535529144



