%chk=./calculation/no_transfer_pubchem_sampling_5_b3lyp/100491595.chk
%nprocshared=7
%mem=6GB
#p b3lyp/6-31g(d) opt SCF=XQC 

Gaussian input prepared by ASE

0 1
C                -9.7027133581       -3.0568238439        0.0388937143
C                -8.4634369032       -2.2203134091       -0.0270308341
C                -8.5453796675       -0.8328769125       -0.1081496891
C                -7.4087617413       -0.0541384855       -0.1475621838
C                -6.1471699159       -0.6533241568       -0.1058682307
C                -4.9705285097        0.1777057215       -0.1496257092
N                -4.9793239146        1.4617540015       -0.2365758877
N                -3.7947988799        2.0364216138       -0.2772904580
C                -2.8146333647        1.2125409856       -0.2120871707
N                -1.4830204576        1.5112620886       -0.2318477366
C                -0.9261983088        2.6837469771        0.2440579330
O                -1.5373798385        3.6848935368        0.4738207942
C                 0.6050709937        2.5785873911        0.3256251502
C                 1.1556607269        3.5959932690        1.3198727806
N                 1.0119827317        1.2149690822        0.6472047680
C                 2.1461366941        0.6658103885        0.0132106092
C                 3.2126356026        0.1483903229        0.7409366042
C                 4.2886512011       -0.4308634337        0.0946308990
C                 4.3267849557       -0.4866909035       -1.2952397281
O                 5.3258886224       -1.0914371841       -1.9999804215
C                 6.6139713288       -1.1023505275       -1.5192213797
C                 7.3914315787       -2.2147597854       -1.8224233049
C                 8.7152417624       -2.2569180762       -1.4276910832
C                 9.2703648462       -1.1972016477       -0.7298126687
C                 8.4972375527       -0.0860669462       -0.4396527238
C                 7.1726564574       -0.0297287895       -0.8335608857
C                 3.2555269577        0.0228386090       -2.0259301129
C                 2.1743589490        0.5834161106       -1.3790497619
S                 0.5567343480        0.6770942253        2.1787185294
C                 0.2970242565       -1.0866808474        1.8576247370
O                -0.7083239052        1.2839710811        2.4484498008
O                 1.5946830429        0.8206524993        3.1542969609
S                -3.3250274454       -0.4807533332       -0.0971190127
C                -6.0595321479       -2.0421153590       -0.0234900683
C                -7.2048629262       -2.8106151506        0.0148068352
H                -9.5302610919       -4.0429654467       -0.3858427015
H               -10.5224316049       -2.5789823545       -0.4922397501
H               -10.0061245145       -3.1863792998        1.0784699859
H                -9.5164841658       -0.3605517914       -0.1414658401
H                -7.4682310027        1.0205028205       -0.2113537219
H                -0.8480647371        0.7242471575       -0.2792913764
H                 0.9866639746        2.8101132510       -0.6771189750
H                 0.7783197610        4.5834237094        1.0683880852
H                 0.8246801822        3.3402682422        2.3230230806
H                 2.2429643975        3.5987753051        1.2928482732
H                 3.1977635702        0.2073945778        1.8167762273
H                 5.1032538221       -0.8407063237        0.6728790210
H                 6.9437565645       -3.0298980552       -2.3691682678
H                 9.3143665655       -3.1234069487       -1.6639137468
H                10.3029986859       -1.2342142568       -0.4183893938
H                 8.9270740217        0.7491022989        0.0928414903
H                 6.5747315128        0.8446530785       -0.6214820790
H                 3.2828229304       -0.0396412481       -3.1021588873
H                 1.3473136316        0.9646387934       -1.9595244170
H                -0.6325649855       -1.1984444392        1.3141658786
H                 0.2300072916       -1.5790468741        2.8198373762
H                 1.1372069221       -1.4707807828        1.2938223795
H                -5.0874103041       -2.5139859438        0.0084148903
H                -7.1233017509       -3.8862755815        0.0775424041



