%chk=calculation/no_transfer_pubchem_sampling_5_b3lyp/100491595_rwf.chk
%rwf=calculation/no_transfer_pubchem_sampling_5_b3lyp/100491595_rwf.rwf
%nprocshared=14
%mem=3GB
#p b3lyp/6-31g(d) 6D 10F nosymm GFInput td=(50-50,nstate=2) SCF=XQC 

Gaussian input prepared by ASE

0 1
C               -10.9084596502       -0.4476369842       -0.4906560564
C                -9.4011946387       -0.4779933149       -0.4059615032
C                -8.6781564476       -1.5902469291       -0.8674444893
C                -7.2925383383       -1.6340605173       -0.7930181972
C                -6.5728571569       -0.5539126427       -0.2483055339
C                -5.1091850613       -0.6244274097       -0.1816163059
N                -4.4170509009       -1.6509328664       -0.6002579694
N                -3.0687624874       -1.5094042039       -0.4424265773
C                -2.7531625039       -0.3630885443        0.1019920889
N                -1.4308934597       -0.0414615589        0.3294279079
C                -0.9690738746        1.0772534214        0.9817544669
O                -1.7048033311        1.9775960156        1.3509552106
C                 0.5660010368        1.1729617998        1.0793763973
C                 1.0002629595        2.1408616588        2.1835797199
N                 1.2156735393       -0.1740045742        1.0777785948
C                 2.4446389946       -0.2979343015        0.3222749868
C                 3.6913891761        0.0907331167        0.8296951898
C                 4.8398398274       -0.0163232903        0.0467897908
C                 4.7452371276       -0.5021542814       -1.2617550089
O                 5.8225874436       -0.6793782867       -2.0929536983
C                 7.0215516361       -0.0211818655       -1.8471968646
C                 8.1653516350       -0.7989291122       -1.6760333573
C                 9.4010797068       -0.1693441184       -1.5167277915
C                 9.4884097764        1.2239241935       -1.5222175634
C                 8.3335349575        1.9908294257       -1.6959134025
C                 7.0940232449        1.3733849694       -1.8644803825
C                 3.5046112747       -0.8934969048       -1.7783789465
C                 2.3668848052       -0.7976436386       -0.9854105775
S                 1.1171660299       -1.0617503467        2.5517157552
C                 1.0074529980       -2.7520951312        1.9341785533
O                -0.1670910075       -0.6798595286        3.1456605565
O                 2.3520896944       -0.9559972019        3.3360869447
S                -4.1025554955        0.6763523011        0.4835142304
C                -7.2886727867        0.5593123213        0.2136593486
C                -8.6797485630        0.5921582239        0.1339433940
H               -11.3116856213        0.5000371862       -0.1204985412
H               -11.3575697142       -1.2555323777        0.1007993665
H               -11.2532625134       -0.5780868715       -1.5239631570
H                -9.2139696343       -2.4363638896       -1.2924428253
H                -6.7441634660       -2.4981216364       -1.1522148525
H                -0.7612141477       -0.7687507464        0.1086479597
H                 0.8764688722        1.5948136837        0.1149049083
H                 0.5104560395        3.1045049630        2.0260018032
H                 0.7115739827        1.7714946654        3.1695384636
H                 2.0839469841        2.2850704308        2.1532138191
H                 3.7685755744        0.4468692729        1.8499887964
H                 5.8022031519        0.2730804157        0.4534086264
H                 8.0745520374       -1.8804818297       -1.6768428371
H                10.2955369879       -0.7718823929       -1.3855153729
H                10.4511623404        1.7104910298       -1.3957703017
H                 8.3962617743        3.0754394356       -1.7096274746
H                 6.1920973056        1.9587166952       -2.0143769553
H                 3.4538316599       -1.2735640639       -2.7934152074
H                 1.4033148611       -1.1015970253       -1.3849423321
H                 0.0680458593       -2.8753922673        1.3929292086
H                 1.0292574617       -3.3988948834        2.8141037240
H                 1.8674566612       -2.9570549787        1.2946105923
H                -6.7641275259        1.4104214306        0.6406100974
H                -9.2123280910        1.4669028600        0.4992245811



