%chk=./calculation/no_transfer_pubchem_sampling_5_b3lyp/101735166.chk
%nprocshared=7
%mem=6GB
#p b3lyp/6-31g(d) opt SCF=XQC 

Gaussian input prepared by ASE

0 1
C                -1.1998321623        4.1910098221       -1.6913480834
C                -0.3214574981        2.9721946571       -1.6907439343
O                 0.8799771952        3.0001349432       -1.7879771433
C                -1.0592227852        1.6687737381       -1.7156673202
C                -1.2771789260        0.8774629088       -0.6757305996
C                -1.8456950515       -0.4660301924       -0.7173946564
C                -1.3620081032       -1.3864080161       -1.6476979763
C                -1.8610400851       -2.6745996071       -1.6806058402
C                -2.8494522266       -3.0597993955       -0.7894852002
C                -3.3342592495       -2.1507493379        0.1362212584
C                -2.8371944181       -0.8604506495        0.1775688807
S                -0.6675726854        1.4428329205        0.9376082485
O                -0.3633069199        2.8453548705        0.8117575190
O                -1.5903528401        1.0652698402        1.9760560255
C                 0.8332810441        0.4850427129        1.1006956570
C                 1.9841904771        0.9191509371        0.4721585130
C                 3.1243243022        0.1397951903        0.5513328321
C                 3.1153451494       -1.0679573958        1.2435498875
C                 4.3481014071       -1.9158993245        1.3045732297
C                 1.9387402605       -1.4857131322        1.8582180893
C                 0.7937723593       -0.7127839290        1.7870920419
H                -0.6372557569        5.0567757448       -2.0305096126
H                -1.5181920454        4.3589537921       -0.6642794258
H                -2.0805455846        4.0356523081       -2.3095719523
H                -1.3866319260        1.3749310354       -2.7078681960
H                -0.5817487037       -1.0851510115       -2.3313934177
H                -1.4768088839       -3.3806014737       -2.4019927346
H                -3.2386753493       -4.0667262890       -0.8162699335
H                -4.1048659908       -2.4478507637        0.8317631370
H                -3.2065282280       -0.1545504233        0.9034093566
H                 1.9740781683        1.8544465654       -0.0656656294
H                 4.0322748596        0.4713355119        0.0697857367
H                 5.2434534762       -1.2994139518        1.2930738312
H                 4.3524963714       -2.5327876733        2.1996134039
H                 4.3846176596       -2.5772575659        0.4384670369
H                 1.9210783567       -2.4216388137        2.3971715139
H                -0.1259086670       -1.0127465525        2.2644424571



