%chk=./calculation/no_transfer_pubchem_sampling_5_b3lyp/101739784.chk
%nprocshared=7
%mem=6GB
#p b3lyp/6-31g(d) opt SCF=XQC 

Gaussian input prepared by ASE

0 1
C                 3.3383170065       -0.6659301100       -1.3680816958
C                 2.9879980856       -0.3810388666        0.0563865797
C                 1.7820788290       -0.5613234770        0.6415784295
C                 0.5525354542       -1.0706717890       -0.0498864304
C                -0.5112705855        0.0318525870       -0.1335842656
C                -0.0827306495        1.2142607607       -0.9834590705
O                 1.0549150708        1.3985124561       -1.3631219717
C                -1.1907568680        2.1367349385       -1.2626414784
C                -0.9302289528        3.4314243910       -1.7166174162
C                -1.9542130448        4.3341273456       -1.8981562357
C                -3.2618999054        3.9503713870       -1.6222466883
C                -3.5443142600        2.6710171695       -1.1909474495
C                -2.5146198527        1.7464321251       -1.0166120641
O                -2.8582254625        0.5006758237       -0.6355595917
C                -1.8439816163       -0.4990429032       -0.6831992421
C                -2.3396787963       -1.6828645808        0.1085934123
C                -2.7217944793       -1.5164624350        1.4335269644
C                -3.1633623565       -2.5999436004        2.1702207478
C                -3.2245944686       -3.8568715592        1.5922395471
C                -2.8476478358       -4.0268425059        0.2713302899
C                -2.4092135941       -2.9428546771       -0.4690334955
C                 1.5773067531       -0.2381648849        2.0724070865
O                 0.5048501567       -0.3811591777        2.6279663477
N                 2.6727867601        0.2405851272        2.7594444489
C                 3.7800605354        0.4068385160        2.1481647584
S                 5.2144596410        1.0343497184        2.9234588248
C                 6.0744568568        0.9159490611        1.4165787674
C                 5.3073424399        0.4298753362        0.4300931086
N                 4.0238298729        0.1326740424        0.8274701014
H                 3.5510891180        0.2688014043       -1.8851083380
H                 4.2090195504       -1.3187567721       -1.4253896431
H                 2.5137749148       -1.1446558823       -1.8810260735
H                 0.7656206744       -1.4483473149       -1.0489803681
H                 0.1417525373       -1.8827822283        0.5559198001
H                -0.6889001231        0.4054614786        0.8830533136
H                 0.0983416636        3.7022100470       -1.9028372709
H                -1.7442457136        5.3341755761       -2.2445361189
H                -4.0682871940        4.6563911220       -1.7536451362
H                -4.5554514828        2.3570014784       -0.9858378745
H                -1.7026766947       -0.7902647614       -1.7393919135
H                -2.6703395394       -0.5396807116        1.8878546927
H                -3.4544733949       -2.4631676120        3.2006052348
H                -3.5658920599       -4.7032911679        2.1697972588
H                -2.8955790235       -5.0046408908       -0.1852710927
H                -2.1166165531       -3.0777319706       -1.5010258397
H                 7.0988644532        1.2188569860        1.3565271708
H                 5.6115951333        0.2779120009       -0.5870211204



