%chk=./calculation/no_transfer_pubchem_sampling_5_b3lyp/102404786.chk
%nprocshared=7
%mem=6GB
#p b3lyp/6-31g(d) opt SCF=XQC 

Gaussian input prepared by ASE

0 1
C                 2.8687442521        0.5333464849        3.4987494680
C                 3.8714257207       -0.2752954721        2.9906906893
C                 4.1023337537       -0.3224087208        1.6286108628
C                 3.3187022212        0.4251193269        0.7535790961
C                 3.5978447083        0.4173111797       -0.6910161936
C                 4.8930404012        0.6426179434       -1.1451858859
C                 5.1775667049        0.7275278889       -2.4946812200
C                 4.1547373166        0.6082737022       -3.4237023863
C                 2.8609321812        0.3893392222       -2.9998752195
C                 2.5729781910        0.2627569722       -1.6394414811
N                 1.2619144077        0.0444900962       -1.2967974644
C                 0.7838924846       -0.9113143326       -0.6371970554
S                 1.8045244744       -2.2297962523        0.0286685946
C                 0.7256406529       -3.6924235409       -0.1735672288
C                -0.6043863412       -3.5173265566        0.5097194787
S                -1.6744945572       -2.3395729440       -0.3854681410
C                -0.6597613639       -0.8559684098       -0.3687549017
N                -1.1499988235        0.2894192880       -0.2404489662
C                -2.4504587668        0.6511696129        0.0139010814
C                -3.0988175784        0.2940584445        1.2076781949
C                -2.4297551727       -0.5544656576        2.2074809013
C                -3.1037235880       -1.6419680936        2.7594264614
C                -2.4762390863       -2.4669102227        3.6742851925
C                -1.1656436624       -2.2209047431        4.0513803628
C                -0.4897872080       -1.1364809089        3.5157399187
C                -1.1185738091       -0.3063478922        2.6057969416
C                -4.3917646617        0.7523917019        1.4321323846
C                -5.0392901760        1.5398607287        0.4991795752
C                -4.4001640055        1.8782486201       -0.6804846557
C                -3.1032478545        1.4540679433       -0.9358514597
C                -2.4397073731        1.7869605491       -2.2095100737
C                -1.1300805886        2.2589210198       -2.2412055927
C                -0.5199320676        2.5511833302       -3.4460926138
C                -1.2066584177        2.3793379132       -4.6366876967
C                -2.5120039015        1.9186010126       -4.6149007685
C                -3.1252854162        1.6256789007       -3.4103796776
C                 2.3016145806        1.2232535017        1.2715612712
C                 2.0870705201        1.2838674759        2.6356238512
H                 2.6995954084        0.5833009306        4.5650235151
H                 4.4802551946       -0.8667115952        3.6594145720
H                 4.8827797244       -0.9551494504        1.2318024778
H                 5.6819014876        0.7682338776       -0.4174623772
H                 6.1916360801        0.9004187598       -2.8225887048
H                 4.3674492561        0.6886572552       -4.4793529324
H                 2.0514367982        0.2817939716       -3.7060202171
H                 0.6054419021       -3.8802837967       -1.2413404384
H                 1.2910349485       -4.5095278016        0.2759486214
H                -1.1672490598       -4.4513394654        0.5162053081
H                -0.4904558573       -3.1552289088        1.5324430807
H                -4.1163151856       -1.8515954406        2.4469927446
H                -3.0086022696       -3.3103897275        4.0899837354
H                -0.6728282585       -2.8720031628        4.7588905343
H                 0.5333307127       -0.9366294094        3.7996554634
H                -0.5891561270        0.5421139714        2.1985849596
H                -4.8826960926        0.4942376695        2.3591690214
H                -6.0421593199        1.8908832095        0.6912543759
H                -4.9011232183        2.4973665486       -1.4101071801
H                -0.5910321198        2.3971354938       -1.3181995640
H                 0.4982171699        2.9123672822       -3.4549402270
H                -0.7269000461        2.6032110074       -5.5785997754
H                -3.0536290019        1.7820967625       -5.5401065741
H                -4.1378173118        1.2476613402       -3.3986977512
H                 1.6916907752        1.8080258029        0.5978581818
H                 1.3120032593        1.9247357639        3.0312325061



