%chk=./calculation/no_transfer_pubchem_sampling_5_b3lyp/10707981.chk
%nprocshared=7
%mem=6GB
#p b3lyp/6-31g(d) opt SCF=XQC 

Gaussian input prepared by ASE

0 1
C                -3.2977119922       -1.9342059315       -0.7312778788
C                -2.3054951866       -1.6631497370        0.3996531970
C                -2.3807805099       -2.7406209066        1.4821305035
N                -0.9557464166       -1.5517987447       -0.1147163046
C                -0.2958147757       -2.5494310721       -0.8004118057
C                -0.8319034440       -3.7973255957       -1.1074079477
N                -1.2306653504       -4.8430654148       -1.3780446569
C                 0.9812752277       -2.1082492241       -1.0925857158
C                 1.1251992751       -0.8247754671       -0.5429476740
C                 2.3597055967       -0.0475024459       -0.5338320136
C                 2.6925157343        0.7494355762        0.5610857673
C                 3.8766074727        1.4606540200        0.5771601159
C                 4.7504609146        1.3872537986       -0.4957747554
C                 4.4325743188        0.5930693263       -1.5844706810
C                 3.2486092191       -0.1203322600       -1.6041698140
C                -0.0943397595       -0.5014505838        0.0525846965
N                -0.4160069552        0.6553554776        0.7431768599
C                -0.7747746174        1.9068191947        0.0543915510
C                -2.2709495351        1.9234008992       -0.2960687321
C                -0.4614065377        3.0430837799        1.0314954954
C                 0.0374887236        2.0845499466       -1.2243996191
H                -3.1889910871       -1.1941169055       -1.5219272573
H                -4.3134663794       -1.8847828474       -0.3475904172
H                -3.1368252754       -2.9206258054       -1.1573354167
H                -2.5569240715       -0.6954412462        0.8497889336
H                -3.3749849909       -2.7558391144        1.9211170463
H                -1.6541226522       -2.5428465936        2.2682019074
H                -2.1751109271       -3.7203770403        1.0582563852
H                 1.7312211797       -2.6767858502       -1.6059210468
H                 2.0121322716        0.7999380693        1.3973047253
H                 4.1236275428        2.0738377103        1.4323311697
H                 5.6752830320        1.9451249626       -0.4820149360
H                 5.1105306985        0.5310890891       -2.4236346606
H                 3.0015366755       -0.7295600875       -2.4612010883
H                -1.0735660776        0.4836426163        1.4957309462
H                -2.8824086538        1.8084739813        0.5983377481
H                -2.5358880956        2.8673966012       -0.7652952818
H                -2.5094577136        1.1207668652       -0.9910392751
H                 0.5967666752        3.0375135822        1.2768169581
H                -0.7128436456        4.0029760411        0.5891379752
H                -1.0307018049        2.9263321770        1.9514044198
H                 1.0997001177        2.1147273150       -1.0043228760
H                -0.1488307678        1.2691634278       -1.9194909571
H                -0.2455204529        3.0176774161       -1.7046025897



