%chk=./calculation/no_transfer_pubchem_sampling_5_b3lyp/109314001.chk
%nprocshared=7
%mem=6GB
#p b3lyp/6-31g(d) opt SCF=XQC 

Gaussian input prepared by ASE

0 1
C                 7.6487195371        0.0462525010        1.4622356676
C                 6.1880499239       -0.0063020132        1.1323933479
C                 5.7424606012       -0.5729210663       -0.0551000591
C                 4.4001588798       -0.6095577205       -0.3820616155
C                 3.4602751028       -0.0689909191        0.4897876426
N                 2.0900218793       -0.0663070933        0.2389574026
C                 1.3743490436       -0.5340025405       -0.8092484544
N                 1.9759458313       -1.1213384033       -1.8455313225
C                 1.2044113643       -1.5520602953       -2.8249120143
C                -0.1751894448       -1.4167747357       -2.8085702002
C                -0.7110833034       -0.7888938980       -1.6886213281
C                -2.1972208596       -0.6018924117       -1.5609518360
O                -2.9770022558       -1.0690191057       -2.3670765559
N                -2.5164207222        0.1172936431       -0.4634311901
C                -3.8022070341        0.4141597963        0.0297851554
C                -4.0836960955        0.0874534132        1.3616562596
C                -3.0395737626       -0.5729277164        2.2132193786
C                -5.3392092572        0.3739637024        1.8716401381
C                -6.3022239680        0.9718138153        1.0778051921
C                -6.0064070395        1.3060518396       -0.2292987213
C                -4.7543695455        1.0469299387       -0.7730936656
C                -4.4370955069        1.4641287336       -2.1728074445
N                 0.0501267926       -0.3495190456       -0.6942749149
C                 3.8977560626        0.5021670399        1.6840610452
C                 5.2419324634        0.5312842777        1.9964643771
H                 8.1763245973       -0.7953738943        1.0196491584
H                 8.0879211579        0.9635415151        1.0680234443
H                 7.8045374556        0.0349171959        2.5385384465
H                 6.4606964089       -0.9974770893       -0.7416464265
H                 4.0696457424       -1.0535102174       -1.3050927586
H                 1.5172848742        0.3580612576        0.9568635830
H                 1.7231194822       -2.0235883678       -3.6497751391
H                -0.8161360083       -1.7668584748       -3.5984197540
H                -1.7279003916        0.2899675045        0.1516011001
H                -2.6354104664       -1.4535966071        1.7152998022
H                -3.4651446220       -0.8775327136        3.1657477226
H                -2.2135791669        0.1115476702        2.4140036712
H                -5.5666917014        0.1184072113        2.8963822010
H                -7.2807000626        1.1828899465        1.4825482891
H                -6.7542430717        1.7869785907       -0.8426923089
H                -4.3666734889        0.5874584738       -2.8166731993
H                -3.4754098722        1.9753626484       -2.2117765928
H                -5.2078674822        2.1256843766       -2.5596047963
H                 3.1769249986        0.9243047658        2.3710567053
H                 5.5607919303        0.9778244718        2.9273945674



