%chk=calculation/no_transfer_pubchem_sampling_5_b3lyp/110469173_rwf.chk
%rwf=calculation/no_transfer_pubchem_sampling_5_b3lyp/110469173_rwf.rwf
%nprocshared=14
%mem=3GB
#p b3lyp/6-31g(d) 6D 10F nosymm GFInput td=(50-50,nstate=2) SCF=XQC 

Gaussian input prepared by ASE

0 1
C                -4.8094303523        1.4654437252       -1.3371097508
N                -4.4102856545        0.3284861215       -0.5284641104
C                -5.2309793604       -0.5458934760        0.1445471074
N                -4.6019412220       -1.4923233602        0.7970502016
C                -3.2627504108       -1.2440820213        0.5499074018
C                -2.1238391109       -1.9373142064        0.9780111320
C                -0.8785338365       -1.4624323740        0.5865144994
C                -0.7467085255       -0.3130111595       -0.2329989855
C                 0.5689268420        0.1766783531       -0.7367255043
O                 0.6982333439        0.6712596263       -1.8444936864
N                 1.6904125652        0.0530613246        0.1144371640
C                 1.7167199819       -0.0462707154        1.5144565989
N                 2.9082047999       -0.0170493204        2.0245811057
C                 3.7685548270        0.1148495714        0.9308244311
C                 5.1642060579        0.1810640060        0.9141153345
C                 5.7925949542        0.3226419961       -0.3200934676
C                 5.0483967502        0.3983632469       -1.5118885924
C                 3.6552443028        0.3344195551       -1.5142690247
C                 3.0361900623        0.1881217542       -0.2727142822
C                -1.8781656572        0.3702613519       -0.6970371913
C                -3.1171263844       -0.1033468801       -0.2824659359
H                -5.8993024076        1.5360053792       -1.3344629854
H                -4.3950020327        2.3940976616       -0.9304887527
H                -4.4662162842        1.3451724380       -2.3700883551
H                -6.3077159896       -0.4263039907        0.1116585142
H                -2.2222921676       -2.8271761696        1.5912656124
H                 0.0113729878       -2.0069084275        0.8841111703
H                 0.7983983907       -0.1090691941        2.0800769901
H                 5.7250162806        0.1227414651        1.8415935055
H                 6.8765848809        0.3791223436       -0.3669297221
H                 5.5707913147        0.5156292368       -2.4572855045
H                 3.0785727437        0.4090277152       -2.4268129678
H                -1.7581326895        1.2247334233       -1.3545089497



