%chk=calculation/no_transfer_pubchem_sampling_5_b3lyp/113213032_rwf.chk
%rwf=calculation/no_transfer_pubchem_sampling_5_b3lyp/113213032_rwf.rwf
%nprocshared=14
%mem=3GB
#p b3lyp/6-31g(d) 6D 10F nosymm GFInput td=(50-50,nstate=2) SCF=XQC 

Gaussian input prepared by ASE

0 1
C                -6.3513881735        0.6395565032       -0.9441363717
C                -5.5864444609       -0.4964295155       -0.2950543707
O                -6.1352378762       -1.4508789943        0.2192580419
N                -4.1808927997       -0.3937786556       -0.3166249933
C                -3.4419333328        0.6525962060       -0.8638533348
C                -2.1057156809        0.4363364789       -0.6987716938
C                -1.1175692413        1.4371397080       -1.1768134865
O                -1.4189798788        2.2833486895       -2.0148482891
N                 0.1240510016        1.3442621463       -0.5880240718
C                 1.2654053399        2.1280462322       -0.8229046344
C                 1.3418368146        3.1757943536       -1.7527004691
C                 2.5361961141        3.8798401857       -1.9059968065
C                 3.6602498862        3.5666148459       -1.1405975796
C                 3.5922269591        2.5325548947       -0.2061677426
C                 2.4086534191        1.8171276674       -0.0601743030
O                 2.2610095305        0.8241817419        0.9023919734
C                 3.1326122980       -0.2551708665        0.9371364842
C                 3.2582536119       -0.8983707438        2.1707278686
C                 4.0686784664       -2.0276947699        2.2749395437
C                 4.7546044002       -2.5124050970        1.1584861277
C                 4.6187059346       -1.8598004093       -0.0676898143
C                 3.8063099691       -0.7307543859       -0.1904576758
C                -1.9619163337       -0.8438094734       -0.0186774930
C                -0.8676443715       -1.6303016055        0.3748205976
C                -1.0923916091       -2.8470349157        1.0091878961
C                -2.4036070447       -3.2753929694        1.2349104164
F                -2.5902184017       -4.4603007200        1.8539809109
C                -3.5222615071       -2.5530350805        0.8458953599
C                -3.2733564230       -1.3342875107        0.2130589460
H                -6.1436061882        1.5952576535       -0.4505551846
H                -6.0915116592        0.7438225666       -2.0031802585
H                -7.4141804480        0.4134235120       -0.8549795842
H                -3.9156123652        1.4990880755       -1.3340120939
H                 0.2269339563        0.6988918747        0.1840871936
H                 0.4655463415        3.4179256495       -2.3370537311
H                 2.5811848679        4.6866621834       -2.6319756538
H                 4.5832470508        4.1261729648       -1.2599553973
H                 4.4469795063        2.2721296007        0.4101850962
H                 2.7206198826       -0.5033116300        3.0269841877
H                 4.1669994788       -2.5263668599        3.2353351795
H                 5.3887518594       -3.3898841474        1.2439057438
H                 5.1435643538       -2.2312581307       -0.9437017765
H                 3.6983653741       -0.2263266686       -1.1445419667
H                 0.1538553694       -1.3245793545        0.1730702090
H                -0.2685967300       -3.4771916505        1.3264030565
H                -4.5217782603       -2.9224085794        1.0221309439



