%chk=calculation/no_transfer_pubchem_sampling_5_b3lyp/115311331_rwf.chk
%rwf=calculation/no_transfer_pubchem_sampling_5_b3lyp/115311331_rwf.rwf
%nprocshared=14
%mem=3GB
#p b3lyp/6-31g(d) 6D 10F nosymm GFInput td=(50-50,nstate=2) SCF=XQC 

Gaussian input prepared by ASE

0 1
C                -4.4299643638        2.6006123421       -1.1051184213
C                -3.2619136246        2.9703585137       -1.7632153537
C                -2.1120575225        2.1929150852       -1.6085498652
C                -2.0823230954        1.0560047874       -0.7863230115
C                -3.2776432388        0.6884395678       -0.0998245485
C                -4.4252071563        1.4725458858       -0.2865307366
N                -3.3657262894       -0.4505607018        0.7180882229
C                -2.2227880927       -0.8995982914        1.5253856207
C                -1.2772761443       -1.7863536952        0.7081162575
C                -1.0500988313       -1.1758938484       -0.6832604580
N                -0.9065489865        0.2865894566       -0.6219856682
C                 0.3548191936        0.8547678021       -1.0406553369
C                 1.5446233430        0.2267383750       -0.3617834013
N                 1.6698434124       -0.0337377248        0.9172271774
C                 2.9551942214       -0.5400834278        1.0614502833
C                 3.6211324158       -0.9838456794        2.2110297815
C                 4.9259879134       -1.4461526443        2.0743884424
C                 5.5687458601       -1.4726900018        0.8200430662
C                 4.9264938950       -1.0368261412       -0.3363441969
C                 3.6177263348       -0.5739215819       -0.1898157592
N                 2.6834433276       -0.0782069719       -1.0826932696
H                -5.3389415066        3.1860819381       -1.2118535055
H                -3.2378660471        3.8444445901       -2.4077483676
H                -1.2209668299        2.4702834737       -2.1618053029
H                -5.3323735944        1.1903111546        0.2457217655
H                -4.2367584107       -0.4623805808        1.2331340903
H                -1.6639505119       -0.0484777710        1.9351976423
H                -2.6248106911       -1.4642757612        2.3731423986
H                -0.3254704772       -1.8709188461        1.2421508154
H                -1.6992844733       -2.7928208418        0.5901903644
H                -1.8902412078       -1.4258278674       -1.3420480751
H                -0.1510372895       -1.6010945764       -1.1426594036
H                 0.5172791412        0.8008095588       -2.1375121149
H                 0.3461981586        1.9206165766       -0.7839866176
H                 3.1219854348       -0.9596729349        3.1749029358
H                 5.4652349178       -1.7945981828        2.9508586417
H                 6.5886471162       -1.8410370192        0.7529823200
H                 5.4252414551       -1.0585283486       -1.3014049324
H                 2.8006542442        0.0359863329       -2.0788954795



