%chk=./calculation/no_transfer_pubchem_sampling_5_b3lyp/11587418.chk
%nprocshared=7
%mem=6GB
#p b3lyp/6-31g(d) opt SCF=XQC 

Gaussian input prepared by ASE

0 1
C                 7.4322088521        1.0818640043       -0.3755409700
O                 6.7135487463       -0.1227888412       -0.4826328061
C                 5.3556146343       -0.0798262750       -0.4185138012
C                 4.5969067583        1.0755960842       -0.2606301712
C                 3.2176558889        0.9965505304       -0.2099839143
C                 2.5552422996       -0.2232150642       -0.3168797433
C                 1.0933678938       -0.2901371010       -0.2598290601
C                 0.3307100681        0.5224452469        0.5169058484
C                -1.0855038115        0.3781095403        0.5315515827
C                -1.9257080783        1.1827308716        1.3130177485
C                -3.2866916011        1.0171058492        1.3057172166
C                -3.9064451725        0.0257382360        0.5140479960
N                -5.2658675755       -0.1551175897        0.5403323830
C                -6.1146771480        0.8241305948        1.1735370515
C                -5.8748179672       -1.1190729398       -0.3432042392
C                -3.0757196401       -0.7746247502       -0.2698707174
C                -1.6957103145       -0.6102970177       -0.2633931849
C                -0.8779156663       -1.4786886073       -1.1075789849
O                -1.3033898754       -2.3547971979       -1.8435066301
N                 0.4757273664       -1.2459749086       -1.0316607267
C                 3.3269982877       -1.3775651779       -0.4750414524
C                 4.7005834513       -1.3087297805       -0.5218366688
H                 7.1844882242        1.7719285614       -1.1886702764
H                 8.4828259924        0.8050834648       -0.4470206351
H                 7.2526460379        1.5733832725        0.5861346502
H                 5.0674752665        2.0429953515       -0.1815408919
H                 2.6440638225        1.9049977794       -0.1059546617
H                 0.7894166811        1.2626672840        1.1516444536
H                -1.4853291188        1.9514483423        1.9324562907
H                -3.8848790990        1.6640335452        1.9266260625
H                -7.1564023365        0.5533912181        1.0192971525
H                -5.9578654009        1.8281292017        0.7628809825
H                -5.9324834131        0.8557486587        2.2513289510
H                -5.7431108158       -0.8530175898       -1.3985240709
H                -6.9402261399       -1.1797227495       -0.1324940405
H                -5.4421448190       -2.1075789562       -0.1784695447
H                -3.4627126571       -1.5465555282       -0.9135016171
H                 1.0495999779       -1.8234498305       -1.6334938775
H                 2.8500402964       -2.3455444415       -0.5300670454
H                 5.2984801052       -2.1991332906       -0.6356416378



