%chk=calculation/no_transfer_pubchem_sampling_5_b3lyp/11587418_rwf.chk
%rwf=calculation/no_transfer_pubchem_sampling_5_b3lyp/11587418_rwf.rwf
%nprocshared=14
%mem=3GB
#p b3lyp/6-31g(d) 6D 10F nosymm GFInput td=(50-50,nstate=2) SCF=XQC 

Gaussian input prepared by ASE

0 1
C                 7.4812729148        1.0902679007       -0.3932285657
O                 6.7619645631       -0.1293760191       -0.4930292053
C                 5.4012857507       -0.0853694745       -0.4250064895
C                 4.6451287090        1.0836778986       -0.2723001263
C                 3.2536010115        1.0063190254       -0.2232731712
C                 2.5804898330       -0.2201993979       -0.3115078072
C                 1.1076933549       -0.2821786182       -0.2421763133
C                 0.3341251435        0.5265748310        0.5369193214
C                -1.0942840319        0.3775626030        0.5520381296
C                -1.9456457093        1.1876456968        1.3325314496
C                -3.3167781043        1.0142247788        1.3281842550
C                -3.9361719864        0.0017644595        0.5426822575
N                -5.3125608407       -0.1871854844        0.5690674468
C                -6.1616641042        0.8146902706        1.1899910133
C                -5.9151087179       -1.0959180507       -0.3924712442
C                -3.0967547752       -0.8009025568       -0.2461484116
C                -1.7103319958       -0.6245393357       -0.2371888394
C                -0.8878434690       -1.5005472300       -1.0906928903
O                -1.3201508959       -2.3793355046       -1.8342340495
N                 0.4804213554       -1.2545525455       -1.0138842464
C                 3.3601520301       -1.3841083929       -0.4642965056
C                 4.7447420791       -1.3212663452       -0.5213951504
H                 7.2270113438        1.7767256742       -1.2115276232
H                 8.5365838810        0.8211053463       -0.4635801621
H                 7.2973366281        1.5894715078        0.5672104065
H                 5.1236828009        2.0541732697       -0.2084571584
H                 2.6778006748        1.9231412956       -0.1382927793
H                 0.8040391031        1.2587958812        1.1838679409
H                -1.5120898539        1.9720372641        1.9487356778
H                -3.9217202364        1.6715710494        1.9416478847
H                -7.2021952139        0.4915951011        1.1195777397
H                -6.0769330584        1.8059227833        0.7151426321
H                -5.9257874699        0.9280166905        2.2549735586
H                -5.7611509103       -0.7785879746       -1.4363759512
H                -6.9891326242       -1.1536743777       -0.2041339960
H                -5.5038020382       -2.1057576383       -0.2835748791
H                -3.4835689001       -1.5815277420       -0.8883089409
H                 1.0335902545       -1.8099022817       -1.6550199379
H                 2.8790496518       -2.3580258256       -0.5037480261
H                 5.3437038531       -2.2200885324       -0.6287202429



