%chk=calculation/no_transfer_pubchem_sampling_5_b3lyp/117629897_rwf.chk
%rwf=calculation/no_transfer_pubchem_sampling_5_b3lyp/117629897_rwf.rwf
%nprocshared=14
%mem=3GB
#p b3lyp/6-31g(d) 6D 10F nosymm GFInput td=(50-50,nstate=2) SCF=XQC 

Gaussian input prepared by ASE

0 1
O                 2.4587189949       -2.0309758032       -0.9579665155
C                 1.9180814583       -1.0219240320       -0.5168011179
N                 0.6229311683       -0.6525246414       -0.8398938712
C                -0.2668580310       -1.2654384315       -1.7329579631
C                 0.0452512842       -2.4106839609       -2.4845514862
C                -0.8921059816       -2.9391529409       -3.3700504173
C                -2.1505313451       -2.3572617693       -3.5293406288
C                -2.4723697370       -1.2263663058       -2.7819891141
C                -1.5449680341       -0.6806765615       -1.8948091836
N                -1.8845210830        0.4966090266       -1.1559000490
C                -1.9120643150        1.7952910477       -1.6403424568
N                -2.2769350138        2.6891308351       -0.7608422292
C                -2.5243021973        1.9614374028        0.3982344436
C                -2.9480160475        2.3996688350        1.6596168435
C                -3.1241754278        1.4466498265        2.6571719724
C                -2.8874542272        0.0775114380        2.4164361771
C                -2.4663315157       -0.3818066122        1.1712007913
C                -2.2902365734        0.5834080151        0.1772471584
C                 2.6221647657       -0.1040995370        0.4332979959
C                 3.7501245249       -0.6147457326        1.0912278176
C                 4.4696524775        0.1642079648        1.9885401168
C                 4.0763021297        1.4859654487        2.2354882719
O                 4.7388418559        2.3021983505        3.1015056147
C                 2.9640120237        2.0187621463        1.5726097274
C                 2.2486535329        1.2280301030        0.6819668239
H                 0.2318664547        0.1202209789       -0.3195457403
H                 1.0184830498       -2.8632907629       -2.3620827914
H                -0.6279048776       -3.8239286475       -3.9427914939
H                -2.8737470329       -2.7787623879       -4.2206130781
H                -3.4448574174       -0.7514971737       -2.8720097680
H                -1.6372707214        1.9975713877       -2.6683490676
H                -3.1317807853        3.4547521861        1.8374601004
H                -3.4523218747        1.7594368135        3.6444624958
H                -3.0388852750       -0.6369972308        3.2206696640
H                -2.2894615870       -1.4362187246        0.9819173098
H                 4.0495218340       -1.6361148415        0.8818892109
H                 5.3380832477       -0.2494136122        2.4981126882
H                 5.4886265258        1.8200601066        3.4844991551
H                 2.6830775606        3.0498474808        1.7598447803
H                 1.4127052125        1.6834343159        0.1574348131



