%chk=calculation/no_transfer_pubchem_sampling_5_b3lyp/11857321_rwf.chk
%rwf=calculation/no_transfer_pubchem_sampling_5_b3lyp/11857321_rwf.rwf
%nprocshared=14
%mem=3GB
#p b3lyp/6-31g(d) 6D 10F nosymm GFInput td=(50-50,nstate=2) SCF=XQC 

Gaussian input prepared by ASE

0 1
O                 3.4807261422       -2.4496434541       -3.1678306281
C                 3.0004060649       -1.8503488265       -2.2075242910
N                 3.3874242933       -0.5669851617       -1.9226473979
C                 3.1830673478        0.2188327163       -0.7124920006
C                 4.4679529098        0.8698811982       -0.2316353136
C                 4.4868550215        2.2273143970        0.1069448897
C                 5.6535897015        2.8310597124        0.5809440139
C                 6.8224317073        2.0816921585        0.7153585330
C                 6.8164314846        0.7265942361        0.3743032410
C                 5.6487141786        0.1262997299       -0.0948240677
C                 1.9888838934       -2.5206932983       -1.3194118031
C                 2.2085398814       -3.8636060751       -0.9867870122
C                 1.2954689112       -4.6038298056       -0.2251530389
C                 0.0933708080       -4.0415770172        0.2109233674
C                -0.1443674197       -2.7195708427       -0.1463775918
N                -1.2220547984       -1.8726720567        0.0780877114
C                -0.9134012265       -0.6884944750       -0.5309618750
N                -1.7483847502        0.4095655900       -0.5386902637
C                -3.0149964359        0.5631693135        0.0068002609
C                -3.6946379306        1.7662113126       -0.1417244129
C                -4.9792336989        1.9108357860        0.4192066459
C                -5.7540545581        3.1011499521        0.3210406644
C                -7.0018085664        3.1662956260        0.8957707897
C                -7.5464005915        2.0571161201        1.5967713366
C                -6.8231905061        0.8932817342        1.7090993847
C                -5.5322910682        0.7953686497        1.1265632913
C                -4.7400970285       -0.3729913152        1.2067250666
N                -3.5374842300       -0.5015388414        0.6788367957
N                 0.2625076345       -0.6714825139       -1.1235460296
C                 0.7767167773       -1.9416247548       -0.8983424198
H                 4.0480388223       -0.2039509307       -2.6001799355
H                 2.7938279078       -0.4533846150        0.0580493185
H                 2.4114227583        0.9810053693       -0.8717491227
H                 3.5792092973        2.8169527645       -0.0033494259
H                 5.6497408309        3.8873986772        0.8373558470
H                 7.7333856844        2.5494717865        1.0793479751
H                 7.7235270553        0.1361162585        0.4745178934
H                 5.6498620388       -0.9268849473       -0.3640669383
H                 3.1186909414       -4.3328320749       -1.3459721072
H                 1.5209418271       -5.6373623172        0.0211621651
H                -0.6234847241       -4.6160179437        0.7907315926
H                -2.1036098264       -2.0226833996        0.5553577515
H                -1.3608309116        1.1883097469       -1.0538035438
H                -3.2432459577        2.5916921593       -0.6860058424
H                -5.3457007087        3.9547898817       -0.2136451360
H                -7.5843995031        4.0800397395        0.8143276548
H                -8.5341942914        2.1354540490        2.0409864992
H                -7.2270861043        0.0359673600        2.2423791852
H                -5.1267760848       -1.2436913584        1.7362543232



