%chk=calculation/no_transfer_pubchem_sampling_5_b3lyp/122323625_rwf.chk
%rwf=calculation/no_transfer_pubchem_sampling_5_b3lyp/122323625_rwf.rwf
%nprocshared=14
%mem=3GB
#p b3lyp/6-31g(d) 6D 10F nosymm GFInput td=(50-50,nstate=2) SCF=XQC 

Gaussian input prepared by ASE

0 1
C                -4.6099371475       -3.1793005185        3.8604909797
C                -3.8152870308       -2.3549798853        2.8957394441
N                -3.5860137522       -1.0732103831        3.1333643742
N                -2.8456277104       -0.6362626793        2.0682318980
C                -2.4552233707        0.7179176048        2.0617387929
C                -2.7402393734        1.5297812230        3.1890664869
C                -2.3510572913        2.8385946304        3.1316353959
C                -1.6850622448        3.2895727480        1.9596089908
N                -1.2672518850        4.5903652429        1.8473712619
C                -0.8954067271        5.2392412441        0.5885299519
C                 0.5856170497        5.1356212502        0.2117578530
N                 0.9237855777        3.8009419757       -0.2479508557
C                 2.1602470754        3.5444403235       -0.7555809697
O                 3.0140960143        4.4279020272       -0.8567613445
C                 2.4370628059        2.1320986773       -1.1972811795
C                 3.7657210116        1.8062051323       -1.4984721874
C                 4.1083955216        0.5264873015       -1.9194274879
C                 3.1315615985       -0.4742532916       -2.0640269047
C                 3.4940002008       -1.8409640284       -2.5166196651
C                 4.6893788807       -2.4477978075       -2.0944672857
C                 5.0309675123       -3.7310880498       -2.5184274512
C                 4.1846719211       -4.4376431847       -3.3749931082
C                 2.9939091734       -3.8481254122       -3.8035948480
C                 2.6528965823       -2.5647869289       -3.3792210162
C                 1.7995536778       -0.1372930584       -1.7703166089
C                 1.4544518215        1.1425685379       -1.3429229260
N                -1.4325562213        2.4576762424        0.9418379755
N                -1.8287843083        1.1786351706        0.9926997859
C                -2.6056131583       -1.6495950202        1.1545595475
C                -1.8181108929       -1.4975155166       -0.1079888972
C                -3.2249213952       -2.7751188288        1.6681774110
C                -3.2827815974       -4.1573603314        1.0898590595
H                -5.5063313483       -3.5983497408        3.3860692059
H                -4.0236236047       -4.0243807291        4.2429677300
H                -4.9238244377       -2.5654585873        4.7087165642
H                -3.2531377420        1.1038703439        4.0410975531
H                -2.5443310153        3.5206002030        3.9556117917
H                -1.5125411248        5.1972451952        2.6147115918
H                -1.1469909866        6.2991965420        0.6950660504
H                -1.5121008024        4.8308204228       -0.2211769806
H                 0.8010270823        5.8525532496       -0.5901724038
H                 1.2098170498        5.4275540681        1.0680526106
H                 0.2547848478        3.0634137872       -0.0379442945
H                 4.5147738982        2.5855508024       -1.4052312177
H                 5.1423124233        0.3041467789       -2.1684935269
H                 5.3428406013       -1.9170528601       -1.4077377633
H                 5.9569447051       -4.1828760739       -2.1721568648
H                 4.4510341142       -5.4378038467       -3.7060832332
H                 2.3320547159       -4.3848666865       -4.4784440670
H                 1.7376234254       -2.1047658626       -3.7412930583
H                 1.0251374784       -0.8941523134       -1.8585875429
H                 0.4100238803        1.3539285486       -1.1322992152
H                -0.8018813158       -1.1416294471        0.0870443484
H                -1.7562173861       -2.4665781337       -0.6113409444
H                -2.2766819268       -0.7764131599       -0.7907701022
H                -2.7412543038       -4.2269952530        0.1420060620
H                -4.3171428335       -4.4719303119        0.8987093180
H                -2.8447587125       -4.8983833432        1.7711429160



