%chk=./calculation/no_transfer_pubchem_sampling_5_b3lyp/12251244.chk
%nprocshared=7
%mem=6GB
#p b3lyp/6-31g(d) opt SCF=XQC 

Gaussian input prepared by ASE

0 1
N                 1.5306043351        1.8370747778       -2.1009366575
C                 0.6399591268        1.1363419848       -1.3364357308
N                -0.6644414874        1.2224749097       -1.4245894594
C                -1.1174761763        0.3724461621       -0.4586137637
C                -2.5264792921        0.1560973934       -0.1987502023
C                -2.9319583139       -0.7312411821        0.7962206475
C                -4.2773884413       -0.9315168615        1.0357363630
C                -5.2272613738       -0.2517674578        0.2889847511
C                -4.8277189114        0.6321826163       -0.7006406051
C                -3.4837632774        0.8378717194       -0.9462786320
N                -0.1500858350       -0.2303808622        0.1965921820
N                 0.9876185462        0.2629244340       -0.3441633258
C                 2.2421526669       -0.1556589982        0.1046307278
C                 2.3656072305       -1.4352901502        0.6387933919
C                 3.5958606452       -1.8762174536        1.0852232395
C                 4.7060613868       -1.0508472676        1.0018825241
C                 4.5761894162        0.2288357049        0.4895614657
C                 3.3482437448        0.6866733427        0.0455247883
H                 2.3805400448        1.3467812249       -2.3393134915
H                 1.0818211186        2.2846375746       -2.8864110308
H                -2.1786749259       -1.2499152124        1.3685760916
H                -4.5906695661       -1.6196275870        1.8077037419
H                -6.2789274519       -0.4109009970        0.4792319403
H                -5.5689576035        1.1620782274       -1.2814578220
H                -3.1525976808        1.5223096612       -1.7117059395
H                 1.4872968497       -2.0580513164        0.6997132456
H                 3.6901458700       -2.8693969193        1.4978589732
H                 5.6677444415       -1.3999951840        1.3462300402
H                 5.4343574806        0.8827292314        0.4434306575
H                 3.2421974330        1.6993474851       -0.3109431106



