%chk=calculation/no_transfer_pubchem_sampling_5_b3lyp/126729624_rwf.chk
%rwf=calculation/no_transfer_pubchem_sampling_5_b3lyp/126729624_rwf.rwf
%nprocshared=14
%mem=3GB
#p b3lyp/6-31g(d) 6D 10F nosymm GFInput td=(50-50,nstate=2) SCF=XQC 

Gaussian input prepared by ASE

0 1
O                -4.3979579418        0.8790792107        2.7317259563
C                -4.8255441228        0.7140730901        1.4685710086
C                -3.9193098516        0.6854851161        0.4456068174
C                -2.4358841268        0.8421539565        0.5762599030
N                -1.7356547600       -0.2245275157       -0.1254074638
C                -0.3395275672       -0.2339211975       -0.1827259681
C                 0.4630032752        0.4887455295        0.7159721864
C                 1.8522859255        0.4080505619        0.6443201083
C                 2.5027113265       -0.3797822474       -0.3164473053
C                 3.9824378990       -0.4547846992       -0.3868092092
C                 4.6325320736       -1.6569203595       -0.7172312083
C                 6.0230838460       -1.7277660620       -0.7857790063
C                 6.7999674717       -0.5986316713       -0.5201705134
C                 6.1703052861        0.6023737211       -0.1880889684
C                 4.7795578456        0.6735890378       -0.1253958222
C                 1.6882038720       -1.0957887687       -1.2131621079
C                 0.3039246191       -1.0275564882       -1.1516848589
O                -4.3324062223        0.5309451424       -0.8477174120
C                -5.6422805045        0.3914780201       -1.1251108284
C                -6.5983956198        0.4069045596       -0.1657908975
C                -6.2492882885        0.5710817562        1.2140028115
S                -7.3346312900        0.6009995710        2.4941955854
H                -5.2180485571        0.8482400126        3.2877238553
H                -2.1395554415        1.8442688494        0.2115669894
H                -2.1996071215        0.8065028129        1.6426329294
H                -2.1727305533       -0.4717941722       -1.0048637997
H                 0.0112504270        1.1060680168        1.4853742921
H                 2.4431499269        0.9579885414        1.3717299492
H                 4.0411668185       -2.5508700911       -0.8957893618
H                 6.5010737674       -2.6713259698       -1.0367181968
H                 7.8840123825       -0.6540046194       -0.5713064049
H                 6.7632220990        1.4911646052        0.0125592843
H                 4.3014051695        1.6219411281        0.1042126851
H                 2.1501932137       -1.6968795469       -1.9915565160
H                -0.2967202956       -1.5909490819       -1.8631897210
H                -5.8165318797        0.2715929969       -2.1871559182
H                -7.6394111006        0.2927752542       -0.4444428734



