%chk=calculation/no_transfer_pubchem_sampling_5_b3lyp/126717120_rwf.chk
%rwf=calculation/no_transfer_pubchem_sampling_5_b3lyp/126717120_rwf.rwf
%nprocshared=14
%mem=3GB
#p b3lyp/6-31g(d) 6D 10F nosymm GFInput td=(50-50,nstate=2) SCF=XQC 

Gaussian input prepared by ASE

0 1
C                 4.8530522328        0.8686496065       -0.0001527263
C                 4.3124035370       -0.5724756278       -0.0330170878
C                 2.8039143098       -0.6387894823        0.0317441093
C                 1.9988723520       -0.4588369093       -1.0993345434
C                 0.6136833905       -0.5032185229       -0.9840524798
C                 0.0654970944       -0.7030841621        0.2897192216
N                -1.3411629090       -0.7373311225        0.4584881648
N                -1.9039449377       -1.6517750497        1.3106131657
C                -3.2034039181       -1.4537811051        1.2578078980
C                -3.5477821895       -0.3877307790        0.3692899926
C                -4.7387569807        0.2378773089       -0.0370401724
C                -4.6584430646        1.3005916034       -0.9231655525
C                -3.4076316964        1.7533301544       -1.3993714820
C                -2.2169154624        1.1513292634       -1.0172031654
C                -2.3022958841        0.0617813094       -0.1347695773
N                 0.8042179421       -0.8844139693        1.3830327132
C                 2.1317059888       -0.8643153631        1.2396177886
H                 4.4709072077        1.4531743263       -0.8448434721
H                 4.5519292089        1.3798636556        0.9208845773
H                 5.9476248860        0.8747252918       -0.0514911334
H                 4.7364980044       -1.1367708406        0.8066670245
H                 4.6618553425       -1.0683313552       -0.9478938023
H                 2.4547430665       -0.3101586614       -2.0758738314
H                -0.0253874672       -0.4205090282       -1.8560699493
H                -3.8624735207       -2.0780609018        1.8478452987
H                -5.6987991102       -0.1015172877        0.3421819014
H                -5.5645691934        1.8011096348       -1.2522329489
H                -3.3755561238        2.5995928231       -2.0802824511
H                -1.2636537437        1.5225459439       -1.3768444235
H                 2.7038716383       -1.0334697536        2.1519929433



