%chk=./calculation/no_transfer_pubchem_sampling_5_b3lyp/126717120.chk
%nprocshared=7
%mem=6GB
#p b3lyp/6-31g(d) opt SCF=XQC 

Gaussian input prepared by ASE

0 1
C                 4.7833442150        0.8335620104        0.1187189399
C                 4.2865893419       -0.5978821179       -0.0966962440
C                 2.7909102872       -0.6499027414       -0.0145228179
C                 1.9904961972       -0.4499916558       -1.1354050540
C                 0.6145792041       -0.4641971298       -1.0112025162
C                 0.0753583262       -0.6631170983        0.2605960746
N                -1.3043661191       -0.6874123049        0.4621564121
N                -1.8492772422       -1.5371535789        1.3518915268
C                -3.1408141782       -1.3714671256        1.3264503279
C                -3.5066756867       -0.3583989064        0.3987961937
C                -4.7015485791        0.2327950572       -0.0118043495
C                -4.6356507425        1.2456377577       -0.9386110177
C                -3.4073174721        1.6881864428       -1.4446333127
C                -2.2138898471        1.1191276276       -1.0601322918
C                -2.2715646067        0.0705111716       -0.1458982211
N                 0.8258984065       -0.8674987675        1.3321998832
C                 2.1359789158       -0.8653301131        1.1937338108
H                 4.3730815929        1.4963456871       -0.6401330737
H                 4.4735666031        1.1979363793        1.0955051922
H                 5.8684974352        0.8704908432        0.0616511411
H                 4.7194445207       -1.2479108392        0.6658882052
H                 4.6151076983       -0.9503949249       -1.0766643177
H                 2.4451160134       -0.3012388207       -2.1051569821
H                -0.0242270982       -0.3578916364       -1.8731610256
H                -3.7788533941       -1.9645859202        1.9510554132
H                -5.6440866444       -0.0966193171        0.3983414198
H                -5.5417968308        1.7251517962       -1.2778659279
H                -3.3987208238        2.5037044996       -2.1527386617
H                -1.2750155262        1.4918175229       -1.4389194710
H                 2.6958360338       -1.0442727974        2.1028067442



