%chk=calculation/no_transfer_pubchem_sampling_5_b3lyp/134798602_rwf.chk
%rwf=calculation/no_transfer_pubchem_sampling_5_b3lyp/134798602_rwf.rwf
%nprocshared=14
%mem=3GB
#p b3lyp/6-31g(d) 6D 10F nosymm GFInput td=(50-50,nstate=2) SCF=XQC 

Gaussian input prepared by ASE

0 1
C                 4.8155343132       -0.7317576455        0.5069286843
C                 3.8286479124       -0.3774699791       -0.6183412300
C                 4.2831056149       -0.9609458048       -1.9676870036
C                 2.4460704435       -0.9343775665       -0.2706084682
O                 2.2461675925       -2.1254108630       -0.0898979339
N                 1.4436337210        0.0159673781       -0.1747082706
C                 0.1013701999       -0.2621079399        0.0757051140
C                -0.5810479913       -1.4535038863        0.2062744864
C                -1.9391193959       -1.0708527247        0.3683483842
C                -3.1098759862       -1.9409184736        0.5529951864
C                -4.3974199398       -1.4049282398        0.7074539019
C                -5.4740205499       -2.2700311337        0.8769359745
N                -5.3701149489       -3.6069800966        0.9045691117
C                -4.1386552259       -4.1110291229        0.7576853554
C                -2.9928065896       -3.3371322921        0.5818436646
N                -2.0857635349        0.2553817756        0.3422900810
N                -0.8275281113        0.7505062840        0.1797910458
C                -0.6345082463        2.1547341461        0.0777845567
C                 0.3997818705        2.7855044559        0.7807847944
C                 0.5780202476        4.1648225969        0.6549023484
C                -0.2832585534        4.9160856583       -0.1445622740
C                -1.3308827793        4.2829863356       -0.8196523166
C                -1.5074182075        2.9053150858       -0.7181775938
H                 4.5208784238       -0.2763865853        1.4591818455
H                 5.8218126086       -0.3785413741        0.2569177913
H                 4.8498383270       -1.8164642405        0.6463019880
H                 3.7730625641        0.7168048380       -0.7080209447
H                 3.6063791808       -0.6725867526       -2.7799644499
H                 5.2878444531       -0.6037916971       -2.2182946063
H                 4.3038947301       -2.0537695365       -1.9147195191
H                 1.6785568795        0.9779350185       -0.3804573994
H                -0.1402569375       -2.4345475235        0.1732250778
H                -4.5429652564       -0.3303300156        0.6956680920
H                -6.4792037404       -1.8686707460        0.9983438823
H                -4.0609145589       -5.1971524830        0.7816898346
H                -2.0273304325       -3.8205921471        0.4698009464
H                 1.0305359092        2.2101544218        1.4518219291
H                 1.3793394516        4.6517109565        1.2035431409
H                -0.1468394558        5.9898985445       -0.2337753888
H                -2.0108818755        4.8642524006       -1.4359770581
H                -2.3136631265        2.3982179741       -1.2359437606



