%chk=calculation/no_transfer_pubchem_sampling_5_b3lyp/136795247_rwf.chk
%rwf=calculation/no_transfer_pubchem_sampling_5_b3lyp/136795247_rwf.rwf
%nprocshared=14
%mem=3GB
#p b3lyp/6-31g(d) 6D 10F nosymm GFInput td=(50-50,nstate=2) SCF=XQC 

Gaussian input prepared by ASE

0 1
C                 2.4949600212        2.0746460584       -0.6431602942
C                 1.1195234341        1.4841961258       -0.4490265034
C                 0.0059100342        2.2958414503       -0.1333143874
C                 0.2147516969        3.6917032214        0.0997643067
N                 0.4327030399        4.8199692299        0.2911449894
C                -1.2760370425        1.6947946641       -0.0009429848
C                -2.5179600661        2.4591830946        0.3033526988
C                -3.4985313312        1.8572142367        1.1105687947
C                -4.6816718314        2.5272210426        1.4087558801
C                -4.9160550850        3.8033769852        0.8906434095
C                -3.9596299823        4.4007184312        0.0693328224
C                -2.7684340664        3.7363379167       -0.2224425684
N                -1.4341427814        0.3774676258       -0.1233450885
C                -0.3909923233       -0.4255598071       -0.4072089476
C                -0.6185212218       -1.8591568607       -0.5255215592
C                -1.7808927428       -2.5601106437       -0.5026268009
O                -1.6380459198       -3.9231494178       -0.4276294542
C                -3.1889716919       -2.1003325042       -0.5452306520
C                -4.1248263630       -2.6864423303        0.3248443492
C                -5.4736409445       -2.3356510909        0.2571583282
C                -5.9061995586       -1.4122881407       -0.6946096301
C                -4.9841919235       -0.8364109963       -1.5739273108
C                -3.6362456114       -1.1745006083       -1.5003707686
C                 0.9131318607        0.1065995887       -0.5805055174
C                 2.0906881604       -0.7582461234       -0.9774901488
O                 2.5654976273       -0.7272034704       -2.1085906828
N                 2.5849189485       -1.5496273366        0.0201835378
C                 3.7644093526       -2.4000953010       -0.1553588640
C                 5.0465502804       -1.7656199244        0.3502453410
C                 5.6450982634       -0.7190827223       -0.3676158493
C                 6.8112886944       -0.1171096080        0.1029090222
C                 7.3972163206       -0.5544225348        1.2943236310
C                 6.8115250230       -1.5977688621        2.0111505979
C                 5.6417425935       -2.1985335285        1.5395078965
H                 3.2449537615        1.5211259265       -0.0677911517
H                 2.5333853989        3.1234602926       -0.3450944397
H                 2.7844383388        1.9976235080       -1.6967241466
H                -3.3174499983        0.8594614732        1.4947618499
H                -5.4234745826        2.0517766093        2.0449669783
H                -5.8402625060        4.3263408218        1.1221675813
H                -4.1384976146        5.3865474485       -0.3508572979
H                -2.0453741952        4.2120837022       -0.8750292627
H                 0.2688011255       -2.4790794972       -0.5923401344
H                -2.4887918244       -4.3322302226       -0.6557473949
H                -3.7876417012       -3.3958243650        1.0766922335
H                -6.1828333437       -2.7838246819        0.9477006931
H                -6.9568180629       -1.1414047071       -0.7534936588
H                -5.3182201911       -0.1212412081       -2.3201913962
H                -2.9225119258       -0.7292957276       -2.1841096851
H                 2.2140134019       -1.4274041773        0.9531327859
H                 3.8304531403       -2.6029194618       -1.2268892141
H                 3.5807887427       -3.3490424249        0.3600520521
H                 5.1900421988       -0.3868917055       -1.2970895077
H                 7.2682363136        0.6900895011       -0.4635695892
H                 8.3077351617       -0.0860451419        1.6583402527
H                 7.2635876138       -1.9462198052        2.9360628965
H                 5.1905148845       -3.0150470174        2.1000829626



