%chk=./calculation/no_transfer_pubchem_sampling_5_b3lyp/136795247.chk
%nprocshared=7
%mem=6GB
#p b3lyp/6-31g(d) opt SCF=XQC 

Gaussian input prepared by ASE

0 1
C                 2.4673880741        1.8361912209       -0.6631818672
C                 1.1037919190        1.2469084775       -0.4877327859
C                -0.0030685139        2.0432857178       -0.1472281888
C                 0.1727308315        3.4166305242        0.1093200513
N                 0.3530117207        4.5278297643        0.3383023656
C                -1.2619158437        1.4227690919       -0.0028204052
C                -2.4957093858        2.1577364049        0.3073842342
C                -3.4502703465        1.5464907764        1.1180721476
C                -4.6390211659        2.1881197285        1.4025309815
C                -4.8951651800        3.4424092055        0.8722816617
C                -3.9590218120        4.0477216318        0.0510299130
C                -2.7645600781        3.4113778065       -0.2337001839
N                -1.4094517689        0.1204252550       -0.1400709038
C                -0.3847021079       -0.6570026296       -0.4775184200
C                -0.6233414163       -2.0707628910       -0.6315160063
C                -1.8348691849       -2.6602373416       -0.6328043622
O                -1.8897719422       -4.0168013599       -0.6795258104
C                -3.1288067840       -1.9526038109       -0.5872149509
C                -4.0436547953       -2.2549974913        0.4160620437
C                -5.2668721449       -1.6081462690        0.4629046541
C                -5.5913906485       -0.6702801157       -0.5003073330
C                -4.6935836272       -0.3849104966       -1.5175740246
C                -3.4705965860       -1.0232160216       -1.5658976703
C                 0.9030950522       -0.1170546861       -0.6602572509
C                 2.0572627627       -0.9808592599       -1.0742948538
O                 2.4450191217       -1.0697216473       -2.2197853411
N                 2.6135061735       -1.6510300309       -0.0384822663
C                 3.8236216065       -2.4393868030       -0.1815710434
C                 5.0122862085       -1.6814031422        0.3506087838
C                 5.4956499356       -0.5865674732       -0.3568517111
C                 6.5508115220        0.1566890529        0.1391921028
C                 7.1355827492       -0.1890409213        1.3466716575
C                 6.6604965814       -1.2788611979        2.0552797140
C                 5.5993530899       -2.0189241299        1.5616782731
H                 3.1583077647        1.4233527155        0.0732571133
H                 2.4463126014        2.9177860977       -0.5562488012
H                 2.8493419195        1.5816057752       -1.6511416039
H                -3.2401838900        0.5662036793        1.5166273009
H                -5.3695385983        1.7088376680        2.0376486723
H                -5.8251310376        3.9452084750        1.0938129398
H                -4.1602628317        5.0196820249       -0.3742886837
H                -2.0527782975        3.8820645587       -0.8948412098
H                 0.2418479153       -2.7089638955       -0.7324145971
H                -2.8103140363       -4.3082331457       -0.7078691907
H                -3.7844229296       -2.9759766974        1.1802879520
H                -5.9642029697       -1.8376430045        1.2553257690
H                -6.5428615088       -0.1614723427       -0.4617344654
H                -4.9507317120        0.3410924213       -2.2741560081
H                -2.7701547802       -0.8078365029       -2.3578099834
H                 2.2856518640       -1.4691289379        0.8974423863
H                 3.9382311530       -2.6273856581       -1.2524547495
H                 3.6976302514       -3.3894427734        0.3452877932
H                 5.0395798029       -0.3261015346       -1.3006681075
H                 6.9199982106        1.0054744893       -0.4172676676
H                 7.9612872401        0.3895060045        1.7334732143
H                 7.1148482959       -1.5526704186        2.9961799054
H                 5.2297105569       -2.8687389375        2.1185698166



