%chk=./calculation/no_transfer_pubchem_sampling_5_b3lyp/139795114.chk
%nprocshared=7
%mem=6GB
#p b3lyp/6-31g(d) opt SCF=XQC 

Gaussian input prepared by ASE

0 1
C               -12.1313198504       -2.4156848872        2.4549258021
C               -10.8288220077       -1.6563997275        2.6757897326
C               -10.2241639738       -1.1702175855        1.3604969680
C                -8.9231230029       -0.4022509777        1.5837542335
C                -8.2221000712        0.0027864028        0.2864507115
C                -8.9988384420        1.0516255599       -0.5068456939
C                -8.2607572135        1.5423936737       -1.7564774003
O                -7.1352592371        2.3381390334       -1.4425526912
C                -5.8869760222        1.8161812155       -1.3426108957
C                -4.9025399980        2.7188608091       -0.9239577312
C                -3.5923510583        2.3250760160       -0.8003020993
C                -3.2075260717        1.0109910801       -1.0821456069
C                -1.8022417053        0.6273230496       -0.9311904240
C                -1.3918070542       -0.7014437287       -0.7734509097
C                -0.0474307967       -0.9786158614       -0.6381386733
C                 0.8597840891        0.0758565236       -0.6590464712
O                 2.2068565960       -0.2348653361       -0.5866115023
C                 3.0500151306        0.5239845971        0.1517500746
O                 2.7049817093        1.4535710545        0.8282405509
C                 4.4405876496        0.0283060316        0.0055503860
C                 4.8278177237       -0.7337648448       -1.0965247687
C                 6.1297100020       -1.1666886274       -1.2381739900
C                 7.0935175417       -0.8625510803       -0.2809838438
C                 8.5182690754       -1.2898155800       -0.4588706908
C                 9.3002921846       -0.2082686085       -1.2194277532
C                10.7871265193       -0.5486197796       -1.3877051930
C                11.7039773055        0.1302672593       -0.3685360200
C                11.4688993674       -0.3035587675        1.0762482969
C                12.5103304656        0.2955407088        2.0142763224
C                 6.7194400534       -0.1082789333        0.8230543466
C                 5.4154495187        0.3295164760        0.9571064447
F                 5.1014195330        1.0345854042        2.0515512044
C                 0.3662747807        1.3683808878       -0.8081102059
N                -0.9167257443        1.6238517535       -0.9394891379
C                -4.1875635959        0.1205970916       -1.5101264968
C                -5.5072863810        0.5104994305       -1.6410669600
H               -12.8669137181       -1.7785349940        1.9684469080
H               -12.5438166235       -2.7534996457        3.4027202884
H               -11.9632892243       -3.2861826426        1.8242480923
H               -10.1124307066       -2.3054714069        3.1847048177
H               -11.0149020564       -0.7977032846        3.3248771510
H               -10.9503813616       -0.5317376839        0.8543191342
H               -10.0293490575       -2.0306655300        0.7154518650
H                -8.2415469791       -1.0311917670        2.1618195239
H                -9.1272638784        0.4917206985        2.1773314868
H                -7.2382450829        0.4053819647        0.5375391552
H                -8.0734839633       -0.8866385444       -0.3311829396
H                -9.1937022076        1.9146781205        0.1328734641
H                -9.9568512748        0.6423031717       -0.8303724441
H                -7.9941412684        0.7025610675       -2.4050124649
H                -8.9218744783        2.2100451749       -2.3196011334
H                -5.2042386250        3.7306954637       -0.7030001613
H                -2.8359776588        3.0227474954       -0.4785963422
H                -2.1116032413       -1.5033557859       -0.7353291820
H                 0.3124676099       -1.9891511457       -0.5137829348
H                 4.0900095508       -0.9752484187       -1.8455029757
H                 6.4065358576       -1.7522161486       -2.1021543716
H                 8.5581145084       -2.2207957692       -1.0274641097
H                 8.9782368986       -1.4608484103        0.5137555823
H                 9.1986827271        0.7441379645       -0.6959925906
H                 8.8371430690       -0.0875867188       -2.2010259277
H                10.9221179941       -1.6308209596       -1.3295008053
H                11.1109667159       -0.2351254909       -2.3824497750
H                12.7391458031       -0.0978834184       -0.6355217622
H                11.5795481603        1.2134198664       -0.4416000150
H                10.4777791927        0.0170967821        1.4007772640
H                11.5116737270       -1.3936918978        1.1385292933
H                13.5100605722       -0.0293595366        1.7339973496
H                12.3247884663       -0.0128977452        3.0405866059
H                12.4805600587        1.3822432337        1.9720817285
H                 7.4343026444        0.1440899580        1.5912925995
H                 1.0238533818        2.2259056151       -0.8253274999
H                -3.9266312317       -0.8941549128       -1.7707517996
H                -6.2272593195       -0.2186574520       -1.9780299901



