%chk=./calculation/no_transfer_pubchem_sampling_5_b3lyp/140449494.chk
%nprocshared=7
%mem=6GB
#p b3lyp/6-31g(d) opt SCF=XQC 

Gaussian input prepared by ASE

0 1
C                -4.9020097578       -0.3231530000       -1.9589958849
C                -4.6380059550       -0.4039435820       -0.4483327845
C                -5.0244955607       -1.7958384734        0.0726610463
C                -5.5274566688        0.6300947783        0.2471905448
C                -3.1592290874       -0.1733494389       -0.1910337462
C                -2.6756677275        0.8651888837        0.5994521311
C                -1.3234833195        1.0365696529        0.8072824253
C                -0.3742471376        0.1780347326        0.2358243282
C                 1.0184752854        0.4087052540        0.4905702035
C                 2.0607297510       -0.3282900637        0.0114415091
C                 3.4346891358       -0.1101369172        0.2543914592
C                 4.3925930643       -0.9843687698       -0.3399113552
C                 5.7212576613       -0.8314326999       -0.1726374355
C                 6.2639489441        0.2763995937        0.6223121708
C                 7.5598925376        0.8952331291        0.2065835740
O                 7.4873360818        0.0527912192        1.3078247403
C                 5.2605115576        1.1160974322        1.2875575481
C                 3.9402725817        0.9266528342        1.0925877565
C                -0.8660015102       -0.8669129338       -0.5598684311
C                -2.2169924264       -1.0307263224       -0.7619997725
H                -5.9616052535       -0.4643863483       -2.1615674885
H                -4.6040711093        0.6511379252       -2.3410939355
H                -4.3481370046       -1.0850552282       -2.5002695369
H                -4.4630005193       -2.5779808889       -0.4306248701
H                -4.8250687430       -1.8663493400        1.1400140056
H                -6.0844421878       -1.9765041316       -0.0935000690
H                -6.5715276786        0.4158604164        0.0275999334
H                -5.3982941203        0.5953873292        1.3265104256
H                -5.3096936857        1.6351854160       -0.1067393573
H                -3.3548992560        1.5596496163        1.0669401619
H                -0.9839205084        1.8545923745        1.4276915128
H                 1.2260471496        1.2587174139        1.1265610766
H                 1.8405041697       -1.1727585225       -0.6289125603
H                 4.0246315871       -1.8052839466       -0.9399691168
H                 6.4320306418       -1.5174506778       -0.6071100293
H                 8.0736504511        0.5021475401       -0.6640872228
H                 7.7316702875        1.9452877254        0.4173256622
H                 5.6300050285        1.8861857466        1.9474011241
H                 3.2407513748        1.5737408980        1.5989723012
H                -0.1815397359       -1.5594397802       -1.0251824683
H                -2.5452093371       -1.8513228465       -1.3828575759



