%chk=calculation/no_transfer_pubchem_sampling_5_b3lyp/144980171_rwf.chk
%rwf=calculation/no_transfer_pubchem_sampling_5_b3lyp/144980171_rwf.rwf
%nprocshared=14
%mem=3GB
#p b3lyp/6-31g(d) 6D 10F nosymm GFInput td=(50-50,nstate=2) SCF=XQC 

Gaussian input prepared by ASE

0 1
C                 4.5939030063        0.9116673418       -2.0699854142
C                 4.1193673428        0.4453418099       -0.7129306402
C                 5.0199804664        0.1806069160        0.3206262053
C                 4.5527631189       -0.2362287649        1.5690638387
C                 3.1930028862       -0.3922829530        1.8345594618
C                 2.7069164100       -0.8431594481        3.1906056287
C                 2.2784378781       -0.1204582113        0.7880770653
N                 0.9056187333       -0.2921809068        1.0672423005
C                -0.1780322297       -0.0297285167        0.2406207490
C                -0.4970483175        1.0609764096       -0.5754403011
C                 0.1184608721        2.3576105349       -0.8120978618
C                -0.1703848977        3.1182679466       -1.9629359758
C                 0.4075822243        4.3741896015       -2.1212610538
N                 1.2492239927        4.9322090425       -1.2412707096
C                 1.5285393597        4.2047486492       -0.1499513606
C                 1.0044418972        2.9423950063        0.1124228696
N                -1.7377957220        0.7531585137       -1.1709239468
C                -2.2176564784       -0.4284191198       -0.7248882387
C                -1.2740173100       -0.9570937192        0.1466899970
C                -1.4816851571       -2.2120586557        0.8355490115
O                -0.7164049244       -2.6454062205        1.7009115542
C                -2.7258713948       -2.9878061351        0.3977728221
C                -3.9413837154       -2.1080258359       -0.0080692011
C                -5.0496123944       -3.0079987638       -0.5802173085
C                -4.4871187501       -1.3614492584        1.2259953021
C                -3.5052247591       -1.0871601425       -1.1009538366
C                 2.7506575186        0.2825253558       -0.4656019702
H                 4.1044346896        0.3577765895       -2.8799740974
H                 4.3685977388        1.9748109368       -2.2260903256
H                 5.6754176562        0.7826841132       -2.1804797604
H                 6.0876704502        0.2998474532        0.1541774386
H                 5.2655486819       -0.4439987200        2.3642937767
H                 2.2292534293       -1.8328992980        3.1540739016
H                 3.5392668431       -0.9111669309        3.8974372356
H                 1.9638537252       -0.1495682532        3.6043953654
H                 0.6997434370       -1.0915601770        1.6642217334
H                -0.8099134441        2.7281241172       -2.7509864879
H                 0.1882631627        4.9617791054       -3.0120282863
H                 2.2109318370        4.6621896454        0.5648099674
H                 1.2623626376        2.4284372698        1.0305964758
H                -2.2587341335        1.4138036676       -1.7287418922
H                -2.9972343750       -3.6747643758        1.2063971294
H                -2.4292911954       -3.6107678207       -0.4604894074
H                -4.6985203352       -3.5711768258       -1.4533698126
H                -5.3913321110       -3.7306488460        0.1697493481
H                -5.9183069178       -2.4135153325       -0.8894290986
H                -5.3708673275       -0.7681231939        0.9615563204
H                -4.7842421463       -2.0725493902        2.0052889957
H                -3.7436068923       -0.6838889611        1.6581966039
H                -4.3014538307       -0.3469843946       -1.2603179706
H                -3.3808576832       -1.6172771392       -2.0581456847
H                 2.0423574475        0.4552022851       -1.2687514551



