%chk=./calculation/no_transfer_pubchem_sampling_5_b3lyp/146586686.chk
%nprocshared=7
%mem=6GB
#p b3lyp/6-31g(d) opt SCF=XQC 

Gaussian input prepared by ASE

0 1
O                -6.2927113735       -1.0749405239        0.2671255310
N                -5.7898849060       -1.7927193368        1.1114135063
O                -6.4177737349       -2.5063538809        1.8714844399
C                -4.3771101115       -1.8120725902        1.2408988206
C                -3.6095315341       -1.0463151045        0.4516270142
C                -2.1713107183       -0.9731426013        0.4545626882
C                -1.3954927741       -1.9862203420        1.0358433783
C                -0.0285324314       -1.9406421555        0.9678419424
F                 0.6939682556       -2.9314854531        1.5241086582
C                 0.6547049671       -0.8930919811        0.3226062091
O                 1.9951907466       -0.9619586328        0.3188218366
C                 2.7378963313        0.0457963607       -0.3341674246
C                 4.2126460811       -0.2535999608       -0.2264884875
C                 4.6726955041       -1.4798223512        0.2286073747
C                 6.0333453781       -1.7261140909        0.3035746072
C                 6.9407429487       -0.7543792018       -0.0789418448
C                 6.4841825686        0.4709951065       -0.5362060986
C                 5.1264963241        0.7213728581       -0.6082781164
C                -0.1191528145        0.1125357532       -0.2454990010
C                -1.5083165219        0.0918212507       -0.1837718053
C                -2.2471040662        1.2236184770       -0.7674835527
C                -1.9796485598        1.6379445423       -2.0700403995
C                -2.6656005691        2.7045118027       -2.6205033961
C                -3.6173822550        3.3797994145       -1.8743947397
C                -3.8801114163        2.9844642093       -0.5735180624
C                -3.2018452630        1.9130108016       -0.0224756674
H                -4.0312714032       -2.4676473922        2.0236898144
H                -4.1287837763       -0.4187352881       -0.2641739098
H                -1.8603669138       -2.8300604614        1.5182535941
H                 2.4531321182        0.0923014634       -1.3969589087
H                 2.5277162971        1.0251075254        0.1201628706
H                 3.9644342941       -2.2354643914        0.5288290709
H                 6.3834471694       -2.6826234947        0.6619128499
H                 8.0012908744       -0.9485073602       -0.0207339415
H                 7.1872812782        1.2342034859       -0.8350731215
H                 4.7706769438        1.6786145209       -0.9628045537
H                 0.3545507533        0.9502595782       -0.7326043174
H                -1.2500026487        1.1010518172       -2.6588380652
H                -2.4587011245        3.0083159866       -3.6359379327
H                -4.1520995317        4.2124441017       -2.3056591452
H                -4.6175494338        3.5099046523        0.0140662007
H                -3.3941129521        1.6178228867        0.9988390844



