%chk=./calculation/no_transfer_pubchem_sampling_5_b3lyp/153761166.chk
%nprocshared=7
%mem=6GB
#p b3lyp/6-31g(d) opt SCF=XQC 

Gaussian input prepared by ASE

0 1
C                -5.8310223783       -1.2973569900        2.1394780855
C                -5.7331616567       -1.4967582074        0.6321019894
C                -5.9484236243       -0.1854148662       -0.1209982169
C                -5.8011978506       -0.3457092095       -1.6365754810
C                -4.3438425303       -0.4624068571       -2.1016052264
C                -3.7363745556        0.8516454283       -2.5989500626
C                -3.6788071237        1.9461403118       -1.5283541924
O                -3.1064781185        1.5125239867       -0.3130571017
C                -1.7776927451        1.2179852303       -0.2483658165
C                -0.8195941373        1.5838204393       -1.2030384928
C                 0.5019578599        1.2596050405       -1.0187382941
C                 0.9507137520        0.5598084861        0.1105626759
C                -0.0199353382        0.1971343581        1.0760475277
C                 0.3795813233       -0.5111879251        2.2448599121
C                 1.6744096317       -0.8413836142        2.4474065837
C                 2.6828841349       -0.4974003920        1.5033712480
C                 4.0229748240       -0.8545900185        1.7450656673
C                 4.9898217704       -0.5193708574        0.8397025644
C                 4.6477554273        0.1762034446       -0.3305654387
C                 3.3516923751        0.5312752231       -0.5885904748
C                 2.3311146616        0.2052712292        0.3251092231
C                 5.8716817078        0.4161580398       -1.1627954510
C                 7.0328196770        0.1861480560       -0.1769789820
C                 8.3001319740       -0.3222558039       -0.8478904728
C                 6.4635074097       -0.7904746881        0.8695922327
C                -1.3628273704        0.5314183277        0.8763663899
H                -6.8118360587       -0.9126507861        2.4116501912
H                -5.0807398595       -0.5851268963        2.4761719298
H                -5.6735072325       -2.2373594608        2.6638430836
H                -6.4807054014       -2.2269810329        0.3114704961
H                -4.7497201579       -1.9040173866        0.3892062637
H                -6.9527934530        0.1836284863        0.1028440134
H                -5.2315702060        0.5495890096        0.2440915815
H                -6.3496455997       -1.2405695184       -1.9403416382
H                -6.2697078368        0.5029772739       -2.1404255589
H                -4.2787655098       -1.1816083831       -2.9210881915
H                -3.7286625279       -0.8435644643       -1.2856420206
H                -2.7255365921        0.6435521451       -2.9573619316
H                -4.3183682489        1.2377054001       -3.4386896166
H                -4.6907260784        2.2532048235       -1.2530666301
H                -3.1527147585        2.8274279084       -1.9186574677
H                -1.1036773583        2.1327090360       -2.0876739697
H                 1.2041250492        1.5639663271       -1.7788975803
H                -0.3806855586       -0.7766398053        2.9654571549
H                 1.9746977503       -1.3780778973        3.3366067902
H                 4.2684869158       -1.3890562388        2.6522390775
H                 3.1240790723        1.0663045368       -1.4973061771
H                 5.8924319040        1.4108935077       -1.6084059017
H                 5.9130562141       -0.3164094954       -1.9748996506
H                 7.2524739032        1.1356926092        0.3227275684
H                 8.6572169918        0.3960352974       -1.5829876344
H                 8.1113876418       -1.2673584899       -1.3540423879
H                 9.0855915511       -0.4777744007       -0.1112641431
H                 6.9002746599       -0.6462492505        1.8578974048
H                 6.6531836974       -1.8247963495        0.5664046617
H                -2.0993290126        0.2537313226        1.6153738871



