%chk=calculation/no_transfer_pubchem_sampling_5_b3lyp/153761166_rwf.chk
%rwf=calculation/no_transfer_pubchem_sampling_5_b3lyp/153761166_rwf.rwf
%nprocshared=14
%mem=3GB
#p b3lyp/6-31g(d) 6D 10F nosymm GFInput td=(50-50,nstate=2) SCF=XQC 

Gaussian input prepared by ASE

0 1
C                -6.3815332889       -1.3110553623        2.0815603983
C                -6.2116131532       -1.4240727858        0.5630767994
C                -6.2660996728       -0.0643987938       -0.1484077899
C                -6.0918312697       -0.1550304043       -1.6775760196
C                -4.6549253573       -0.4546711573       -2.1655753566
C                -3.8234738271        0.7809845274       -2.5565557202
C                -3.6019883575        1.8061304014       -1.4424828900
O                -3.0187936410        1.2480235539       -0.2615232877
C                -1.6746398202        1.0017917268       -0.2006788780
C                -0.7448914637        1.3450499097       -1.2055424375
C                 0.6002992881        1.0694774657       -1.0262988056
C                 1.0963966406        0.4464704090        0.1385527921
C                 0.1455895264        0.1021433062        1.1478444771
C                 0.5970213264       -0.5343294143        2.3537415542
C                 1.9128821049       -0.8148335309        2.5484263827
C                 2.9051336710       -0.4905000547        1.5626618563
C                 4.2700430759       -0.7911073851        1.7930080360
C                 5.2212222724       -0.4722804295        0.8485926531
C                 4.8333570052        0.1568731969       -0.3568619517
C                 3.5095963954        0.4584972831       -0.6044753072
C                 2.5066503336        0.1447880861        0.3462538885
C                 6.0487364665        0.3931365842       -1.2276999439
C                 7.2342867274        0.2832376938       -0.2309500966
C                 8.5654701348       -0.1155077963       -0.8656768923
C                 6.7177879760       -0.6946658461        0.8592610040
C                -1.2201143219        0.3863820436        0.9567863968
H                -7.3414571673       -0.8466716221        2.3400350221
H                -5.5881037468       -0.6955268974        2.5229827315
H                -6.3474076026       -2.2949740267        2.5634901517
H                -6.9964976831       -2.0762095641        0.1530114360
H                -5.2572303424       -1.9213742440        0.3433356484
H                -7.2356486620        0.4055278966        0.0713733054
H                -5.4982357539        0.5907813613        0.2822109281
H                -6.7690555567       -0.9356664532       -2.0506597584
H                -6.4404177785        0.7794976762       -2.1408964568
H                -4.6988068861       -1.1042825953       -3.0487886388
H                -4.1106399721       -1.0239291666       -1.4026497629
H                -2.8522867599        0.4462204675       -2.9420235038
H                -4.3197711717        1.3097612050       -3.3838147715
H                -4.5582537555        2.2120025545       -1.1011617065
H                -3.0008549791        2.6519409394       -1.8006514034
H                -1.0661741772        1.8225268899       -2.1237694039
H                 1.2820686912        1.3478088958       -1.8229263211
H                -0.1407311974       -0.7881091458        3.1109911857
H                 2.2415810603       -1.2969341775        3.4663756366
H                 4.5485526469       -1.2705473952        2.7297324811
H                 3.2429469972        0.9472046121       -1.5366692581
H                 6.0291825065        1.3527015645       -1.7577919653
H                 6.1270702931       -0.3920520929       -1.9965610190
H                 7.3509175917        1.2675004799        0.2446681144
H                 8.8787943697        0.6108627192       -1.6251278588
H                 8.4905782043       -1.0963385891       -1.3526222711
H                 9.3629462075       -0.1756981480       -0.1153903813
H                 7.1806934463       -0.5201499365        1.8376457513
H                 6.9531796615       -1.7335086924        0.5781182624
H                -1.9415042554        0.1271082575        1.7264669641



