%chk=calculation/no_transfer_pubchem_sampling_5_b3lyp/153982023_rwf.chk
%rwf=calculation/no_transfer_pubchem_sampling_5_b3lyp/153982023_rwf.rwf
%nprocshared=14
%mem=3GB
#p b3lyp/6-31g(d) 6D 10F nosymm GFInput td=(50-50,nstate=2) SCF=XQC 

Gaussian input prepared by ASE

0 1
C                 0.8343588346        3.3950105670       -0.2868529217
O                -0.0128104081        2.3512387927        0.1720992429
Si                0.0542304073        0.8021162409       -0.4541385627
C                -1.5196674085       -0.0853521288        0.0578729509
C                -1.4312501521       -1.2159737458        0.8884252623
C                -2.5663898004       -1.9243756675        1.2869405057
C                -3.8206074472       -1.5027026220        0.8526392376
C                -3.9299200160       -0.3808704259        0.0285438454
C                -2.8008481136        0.3380441596       -0.3783320514
C                -2.9709849683        1.5539447967       -1.2630123568
C                 1.5982741654       -0.0648022401        0.1896247696
C                 2.2285287483        0.4731231786        1.3261557209
C                 3.3842670608       -0.0967282620        1.8626029211
C                 3.9320190666       -1.2265628201        1.2585625624
C                 3.3203850946       -1.7767093828        0.1307997341
C                 2.1599222278       -1.2160154831       -0.4155974958
C                 1.5253869049       -1.8549033301       -1.6327515778
H                 0.4915697658        4.3326815511        0.1616794370
H                 1.8783655064        3.2264040657        0.0096145501
H                 0.7964165304        3.4964840741       -1.3807570515
H                 0.1344127605        0.9148024336       -1.9432346651
H                -0.4552266524       -1.5470206680        1.2346485967
H                -2.4692647084       -2.7941502974        1.9313390101
H                -4.7156917203       -2.0419311767        1.1528130547
H                -4.9128544123       -0.0552260454       -0.3050156159
H                -2.5771953726        2.4539623320       -0.7779754682
H                -2.4318260975        1.4399092546       -2.2121921262
H                -4.0256106652        1.7265415880       -1.4992738181
H                 1.8016836871        1.3541062715        1.7997388079
H                 3.8506046918        0.3381351702        2.7428389993
H                 4.8328381238       -1.6826229579        1.6616181928
H                 3.7513455032       -2.6603366901       -0.3351188888
H                 0.4990771963       -2.1841501456       -1.4268766021
H                 1.4728150501       -1.1554265562       -2.4760077088
H                 2.0936466176       -2.7306448308       -1.9614214906



