%chk=./calculation/no_transfer_pubchem_sampling_5_b3lyp/153982023.chk
%nprocshared=7
%mem=6GB
#p b3lyp/6-31g(d) opt SCF=XQC 

Gaussian input prepared by ASE

0 1
C                 0.7168924101        3.4751787177       -0.1370016208
O                -0.0679844004        2.3465492096        0.1076172530
Si                0.0995205351        0.8540343499       -0.5293253523
C                -1.4619797261       -0.0527451896        0.0158020206
C                -1.3456712361       -1.1564794857        0.8548097979
C                -2.4517657475       -1.8827695122        1.2570864390
C                -3.7084802882       -1.5112805938        0.8150804122
C                -3.8425323036       -0.4170375108       -0.0212109669
C                -2.7360481742        0.3158769989       -0.4272713466
C                -2.9155537365        1.4925163098       -1.3362332138
C                 1.6291553996       -0.0295631701        0.1459306659
C                 2.3117667324        0.5215945720        1.2267733679
C                 3.4260800758       -0.0890037032        1.7728053808
C                 3.8790816227       -1.2810203528        1.2372613984
C                 3.2075210552       -1.8499076684        0.1691359752
C                 2.0880956909       -1.2418529563       -0.3813915840
C                 1.3805494650       -1.8889713808       -1.5327181059
H                 0.3988968659        4.2613221938        0.5492109017
H                 1.7770704515        3.2646170920        0.0197892628
H                 0.5813625963        3.8190289530       -1.1655124191
H                 0.2098526863        0.9547336695       -1.9973679472
H                -0.3656940489       -1.4511059349        1.2034936601
H                -2.3333545857       -2.7342387280        1.9116584764
H                -4.5817659871       -2.0697418013        1.1203580374
H                -4.8262861384       -0.1274456499       -0.3650656654
H                -2.4423047788        2.3719407106       -0.9073784737
H                -2.4478331961        1.2989648598       -2.3006305129
H                -3.9704340833        1.7017412740       -1.4984771151
H                 1.9526226573        1.4457895110        1.6568536525
H                 3.9361554351        0.3606926362        2.6126449528
H                 4.7485261950       -1.7703208112        1.6522888681
H                 3.5588697044       -2.7867028473       -0.2417674216
H                 0.3154192919       -1.9763012587       -1.3279091035
H                 1.4958245869       -1.2879810430       -2.4332229040
H                 1.7844249736       -2.8801124597       -1.7261177700



