%chk=calculation/no_transfer_pubchem_sampling_5_b3lyp/156485815_rwf.chk
%rwf=calculation/no_transfer_pubchem_sampling_5_b3lyp/156485815_rwf.rwf
%nprocshared=14
%mem=3GB
#p b3lyp/6-31g(d) 6D 10F nosymm GFInput td=(50-50,nstate=2) SCF=XQC 

Gaussian input prepared by ASE

0 1
C                 5.2183542746        0.6892454493       -0.3937847297
C                 4.4911986884       -0.6422384906       -0.1312206499
C                 2.9876232578       -0.4861994733       -0.0504429615
C                 2.1859131463       -0.5844397036       -1.1951650846
C                 0.8066575160       -0.4014931216       -1.1301390246
C                 0.1689300372       -0.1155441365        0.0886085764
C                -1.3022383557        0.0716496900        0.1617749723
C                -1.8592832187        1.0449600927        1.0292495623
C                -3.2288429816        1.2547543247        1.1307075050
C                -4.0903259543        0.4748648437        0.3444154106
C                -5.5160537736        0.3646689664        0.1507970741
C                -5.6931350736       -0.6152376549       -0.7694466624
O                -4.5034627910       -1.1547874316       -1.1947794163
C                -3.5208346342       -0.4843012987       -0.5134750049
C                -2.1572642610       -0.7113774814       -0.6278654629
C                 0.9733916107       -0.0200944597        1.2365972200
C                 2.3525787572       -0.2016345578        1.1655485029
H                 4.8905152825        1.1356004579       -1.3393509403
H                 6.3030761697        0.5397195371       -0.4456972925
H                 5.0120791112        1.4126446087        0.4030637541
H                 4.7442595861       -1.3530858868       -0.9281563428
H                 4.8654611551       -1.0774329947        0.8042200493
H                 2.6498975773       -0.8018072166       -2.1552492483
H                 0.2168262950       -0.4600829075       -2.0409245597
H                -1.1859226845        1.6647239043        1.6136908031
H                -3.6200285080        2.0157008493        1.8003528620
H                -6.2948974863        0.9379530155        0.6342170133
H                -6.5749777231       -1.0435327199       -1.2224107831
H                -1.7745310848       -1.4861276809       -1.2834710819
H                 0.5088500904        0.1674401092        2.2007594903
H                 2.9461869747       -0.1345096325        2.0751804499



