%chk=./calculation/no_transfer_pubchem_sampling_5_b3lyp/156485815.chk
%nprocshared=7
%mem=6GB
#p b3lyp/6-31g(d) opt SCF=XQC 

Gaussian input prepared by ASE

0 1
C                 5.1143102291        0.7070096843       -0.3503243371
C                 4.4483550341       -0.6539794856       -0.1362262028
C                 2.9565733285       -0.5009319467       -0.0579099867
C                 2.1748982066       -0.5547811119       -1.2050398464
C                 0.8068601501       -0.3754934054       -1.1410555718
C                 0.1778582580       -0.1272053444        0.0767046561
C                -1.2783705241        0.0643878004        0.1459300071
C                -1.8143222149        1.0673044129        0.9718161163
C                -3.1683568930        1.2884500007        1.0696644813
C                -4.0264935092        0.4817564870        0.3253432923
C                -5.4413950864        0.3829722101        0.1542895821
C                -5.6383984998       -0.6289048973       -0.7220768310
O                -4.4779420213       -1.1930958714       -1.1330737349
C                -3.4845439540       -0.5231998233       -0.5014006060
C                -2.1222669127       -0.7430980051       -0.6054943544
C                 0.9626371207       -0.0684366162        1.2259795963
C                 2.3296056129       -0.2547870745        1.1569974096
H                 4.7604804845        1.1595304248       -1.2740579571
H                 6.1950081391        0.5983120816       -0.4076802774
H                 4.8751792702        1.3780416115        0.4717408444
H                 4.7100319318       -1.3163347381       -0.9639947233
H                 4.8245177678       -1.0967250708        0.7883758801
H                 2.6453143808       -0.7412327085       -2.1604949339
H                 0.2186510688       -0.4069564099       -2.0466386453
H                -1.1327394984        1.6936672141        1.5281433441
H                -3.5608572190        2.0680954341        1.7048523726
H                -6.1932271170        0.9846893430        0.6223998145
H                -6.5384875036       -1.0448169239       -1.1324375940
H                -1.7361002632       -1.5312410393       -1.2320946407
H                 0.4926757014        0.1010582605        2.1838828845
H                 2.9205455320       -0.2140554927        2.0614839614



