%chk=calculation/no_transfer_pubchem_sampling_5_b3lyp/156767653_rwf.chk
%rwf=calculation/no_transfer_pubchem_sampling_5_b3lyp/156767653_rwf.rwf
%nprocshared=14
%mem=3GB
#p b3lyp/6-31g(d) 6D 10F nosymm GFInput td=(50-50,nstate=2) SCF=XQC 

Gaussian input prepared by ASE

0 1
O                -0.2309053121       -1.7578550924        0.8161040251
C                 0.3204439083       -0.8013290922        0.2839604844
C                 1.7824953286       -0.6322629591        0.2029262239
C                 2.5976969713       -1.6208313469        0.7791321248
C                 3.9783341968       -1.5056113132        0.7276742497
C                 4.5643813077       -0.3956668525        0.0946400011
C                 3.7723500150        0.5870220303       -0.4783871680
C                 2.3659049226        0.4897287868       -0.4349231967
C                 1.4969889848        1.4793973684       -1.0134977202
C                 0.1566061605        1.3308381341       -0.9321171813
N                -0.4380832282        0.2404222754       -0.3079285185
C                -1.8666625078        0.1782503904       -0.2368822649
C                -2.5768066162       -0.9288673948       -0.7123180030
C                -3.9680570233       -0.9582212839       -0.6418326136
C                -4.6690009786        0.1213167637       -0.0990831338
C                -3.9770061906        1.2319522252        0.3816646385
C                -2.5896351506        1.2397813909        0.3153100277
F                -1.9214029733        2.3134152741        0.7905872826
H                 2.1145072639       -2.4651201195        1.2593652623
H                 4.6068678763       -2.2705284175        1.1745678937
H                 5.6468704371       -0.3064405354        0.0541887371
H                 4.2281605106        1.4445542950       -0.9670327452
H                 1.9113347773        2.3445611794       -1.5192862090
H                -0.5358290506        2.0466076275       -1.3556827808
H                -2.0254669370       -1.7660847168       -1.1226526418
H                -4.5044943252       -1.8259486341       -1.0132374927
H                -5.7535591446        0.1006703164       -0.0467607279
H                -4.4860332229        2.0862497005        0.8155234463



