%chk=./calculation/no_transfer_pubchem_sampling_5_b3lyp/156767653.chk
%nprocshared=7
%mem=6GB
#p b3lyp/6-31g(d) opt SCF=XQC 

Gaussian input prepared by ASE

0 1
O                -0.2589230837       -1.7254509776        0.7791236454
C                 0.3047299084       -0.7830908069        0.2546179396
C                 1.7557154402       -0.6284761769        0.1850852545
C                 2.5610364420       -1.6234214037        0.7463111228
C                 3.9316418782       -1.5139386626        0.7045238534
C                 4.5232184562       -0.4055692245        0.0996077414
C                 3.7455849488        0.5826320799       -0.4572379548
C                 2.3483878186        0.4912105624       -0.4248275636
C                 1.4952519718        1.4878245765       -0.9894084307
C                 0.1595465470        1.3400409319       -0.9175882282
N                -0.4295673882        0.2547042295       -0.3262239535
C                -1.8429492761        0.1984229211       -0.2537276784
C                -2.5360919010       -0.9263184416       -0.6850297285
C                -3.9153589465       -0.9763880989       -0.5949833300
C                -4.6246336102        0.0949327679       -0.0791289355
C                -3.9526057884        1.2236064711        0.3560351102
C                -2.5744906924        1.2610383791        0.2716435904
F                -1.9289622936        2.3621615336        0.7165578444
H                 2.0750483945       -2.4691753698        1.2088383342
H                 4.5517140732       -2.2832322933        1.1393835279
H                 5.6000795633       -0.3244309700        0.0698113095
H                 4.2023899932        1.4423394368       -0.9257355123
H                 1.9240676196        2.3503769034       -1.4716677569
H                -0.5195066615        2.0651597996       -1.3404510560
H                -1.9819394564       -1.7615132201       -1.0811040452
H                -4.4375486442       -1.8582901640       -0.9316593033
H                -5.7004893093        0.0540848255       -0.0098505300
H                -4.4753460036        2.0707603915        0.7711067332



