%chk=calculation/no_transfer_pubchem_sampling_5_b3lyp/156878615_rwf.chk
%rwf=calculation/no_transfer_pubchem_sampling_5_b3lyp/156878615_rwf.rwf
%nprocshared=14
%mem=3GB
#p b3lyp/6-31g(d) 6D 10F nosymm GFInput td=(50-50,nstate=2) SCF=XQC 

Gaussian input prepared by ASE

0 1
C                 6.5403964162       -2.2028442334       -1.1562086178
C                 6.2904170784       -1.0564748753       -0.5150452779
C                 7.3371197894        0.0244386028       -0.3804855129
C                 4.9656093572       -0.7460493872        0.1310861181
C                 4.1259768225        0.4559055911       -0.4118444458
C                 2.8438737255       -0.3695507035       -0.1159398668
C                 3.7176282303       -1.6444063892       -0.0794563367
C                 2.0214448713        0.0708632900        1.1207403981
C                 0.9924970947        0.7400476044        0.1516955151
C                -0.4646300075        0.7499121904        0.5364306465
C                -1.5704877921        0.3143688279       -0.1727001268
C                -1.6239689957       -0.1700947557       -1.6065425051
C                -1.9741751191       -1.6642853038       -1.7688405235
C                -2.5038787825        0.7108739867       -2.5193885426
N                -2.7236217098        0.4909220821        0.6212555672
C                -4.0731986501        0.0966659483        0.3581404567
C                -4.4856429206       -1.2183820089        0.6032288116
C                -5.8128210845       -1.5932318695        0.3970282803
C                -6.7184682282       -0.6311364315       -0.0366932479
F                -8.0029534696       -0.9866121900       -0.2351865252
C                -6.3416893253        0.6878637000       -0.2655063901
C                -5.0102156909        1.0483208486       -0.0618174032
C                -2.3567262677        1.0614317401        1.8305637408
C                -3.1575515454        1.4152289433        2.9243931242
C                -2.5306082968        2.0089659703        4.0124122176
C                -1.1437920718        2.2516841466        4.0125101854
C                -0.3849143560        1.8800522296        2.9182311474
F                 0.9446919575        2.1510397049        2.9312514487
C                -0.9533662332        1.2526495343        1.8006465064
C                 1.5703672243       -0.1827924984       -0.9661888615
H                 7.5092624439       -2.3999786463       -1.6088214095
H                 5.7965348989       -2.9889443479       -1.2482499838
H                 7.5468767204        0.2406232457        0.6763822913
H                 8.2778951525       -0.2589526492       -0.8624671196
H                 6.9946946784        0.9669769771       -0.8284894073
H                 5.1266763593       -0.5939982370        1.2085043512
H                 4.2802130017        0.5877102158       -1.4899994584
H                 4.2360840689        1.4261165233        0.0856065259
H                 3.4895104760       -2.3919717308        0.6888034818
H                 3.7364234158       -2.1381300326       -1.0583063305
H                 2.5041953412        0.7085733176        1.8642218245
H                 1.5712486396       -0.7909520825        1.6284300208
H                 1.3290404140        1.7687045409       -0.0375961816
H                -0.6037511786       -0.0482821338       -1.9739673043
H                -1.8164191763       -1.9728345098       -2.8092576432
H                -3.0190240769       -1.8704469975       -1.5191180967
H                -1.3411267326       -2.2909495617       -1.1307526041
H                -2.2432803592        1.7697248310       -2.4140557797
H                -3.5698330713        0.5979835692       -2.3034209243
H                -2.3474737888        0.4267831736       -3.5668587673
H                -3.7616672743       -1.9440414303        0.9597478069
H                -6.1519937837       -2.6079652291        0.5764265312
H                -7.0823869619        1.4087288808       -0.5950374727
H                -4.6876448333        2.0708426525       -0.2303498235
H                -4.2279875981        1.2395271911        2.9176093189
H                -3.1184072551        2.3016204126        4.8776060461
H                -0.6547119540        2.7338790950        4.8522734985
H                 1.6889347515        0.2330746107       -1.9740888103
H                 1.0208026613       -1.1287989439       -1.0331455598



