%chk=./calculation/no_transfer_pubchem_sampling_5_b3lyp/159042331.chk
%nprocshared=7
%mem=6GB
#p b3lyp/6-31g(d) opt SCF=XQC 

Gaussian input prepared by ASE

0 1
C                -4.1973042028        3.9415418497        1.3289108813
C                -2.9042971096        3.1841458805        1.3405909834
C                -2.4667947072        2.5287769887        2.4829374892
C                -1.2896642523        1.7958499254        2.4876156525
C                -0.8239428969        1.0682813229        3.7127212992
C                -0.5401926668        1.7296302209        1.3152760338
O                 0.6507061660        0.9838340635        1.3557019027
C                 0.6061607739       -0.2026801075        0.7433297973
N                -0.5304869722       -0.5119137382        0.1552653487
C                -0.7138581069       -1.6763327883       -0.4589735251
C                -2.0395205905       -1.8394638086       -1.0657484508
C                -2.4915927401       -3.0359069448       -1.6211784368
C                -3.7663595506       -3.1141992209       -2.1506605735
C                -4.6092941602       -2.0145709777       -2.1327980602
C                -4.1763160275       -0.8119121165       -1.5883277578
C                -5.0743194552        0.4002864379       -1.4947527932
N                -5.3622819984        0.8124495467       -0.1262130723
C                -2.8966603657       -0.7394338641       -1.0637568949
C                 0.3009128696       -2.6349203573       -0.4758399088
C                 1.4857707017       -2.3381089137        0.1660425015
C                 1.6913302549       -1.1074011519        0.7935781313
C                 2.9848253847       -0.9025049667        1.4618494932
O                 3.7063842415       -1.8406201571        1.7491107012
C                 3.4346620958        0.5014838604        1.7036570545
S                 4.0251903043        1.1242023394        0.0743163288
O                 2.8874211667        1.3682411694       -0.7672448454
O                 4.9088710822        2.2305945988        0.3313887954
C                 4.9851688190       -0.2551871739       -0.5819056140
C                 6.3528823327       -0.2778141307       -0.4479610083
C                 7.0091659483       -1.4115120472       -0.9283718052
C                 6.2742397272       -2.4260183976       -1.4978780867
C                 4.8761174741       -2.2886935304       -1.5842913616
N                 4.0859643560       -3.2664309364       -2.0937662578
N                 4.2538148075       -1.2041587424       -1.1234760998
C                -0.9413506541        2.3834891738        0.1529217416
C                -0.1538146940        2.2924088102       -1.1149926714
C                -2.1283633994        3.1035209606        0.1930117381
H                -4.5348797890        4.1500089584        2.3408287582
H                -4.9662658816        3.3563725081        0.8236054668
H                -4.0853383365        4.8821018400        0.7939123716
H                -3.0561404111        2.5813978072        3.3872460339
H                 0.1657017094        1.4149156061        4.0073503474
H                -0.7535291168       -0.0012998226        3.5133496439
H                -1.5122263179        1.2254765448        4.5388332849
H                -1.8603319680       -3.9108935966       -1.6336192551
H                -4.1114575382       -4.0450543134       -2.5770134654
H                -5.6056160668       -2.0918294130       -2.5444407286
H                -6.0276999991        0.2046962993       -1.9925690454
H                -4.5943522128        1.2490604995       -1.9921618211
H                -5.8263586488        0.0575886381        0.3699170182
H                -4.4929443756        1.0042226979        0.3631739341
H                -2.5389091785        0.1833136815       -0.6325448258
H                 0.1701517095       -3.5846495905       -0.9682772657
H                 2.2960121936       -3.0517872235        0.2005607223
H                 4.2988529563        0.5355418682        2.3614747831
H                 2.6483831636        1.1788705277        2.0153344010
H                 6.8654334069        0.5538407813        0.0029099757
H                 8.0830733065       -1.4922809511       -0.8501182427
H                 6.7485661063       -3.3198458234       -1.8725110062
H                 3.1226868030       -3.0247712285       -2.2520882964
H                 4.4956280000       -3.9931604490       -2.6527578832
H                 0.9073003702        2.1543383364       -0.9220765337
H                -0.4952409316        1.4351178640       -1.6970909189
H                -0.2958808651        3.1888047583       -1.7140695417
H                -2.4577900434        3.6109531176       -0.7025985609



