%chk=calculation/no_transfer_pubchem_sampling_5_b3lyp/159042331_rwf.chk
%rwf=calculation/no_transfer_pubchem_sampling_5_b3lyp/159042331_rwf.rwf
%nprocshared=14
%mem=3GB
#p b3lyp/6-31g(d) 6D 10F nosymm GFInput td=(50-50,nstate=2) SCF=XQC 

Gaussian input prepared by ASE

0 1
C                -3.8046375255        4.4647182785        1.4379647951
C                -2.6445876028        3.4991422601        1.3493763665
C                -2.3156250817        2.6653369637        2.4232723849
C                -1.2801189552        1.7276606184        2.3402637615
C                -0.9419004547        0.8264328750        3.5024923870
C                -0.5745346501        1.6459595939        1.1362287057
O                 0.5001460536        0.7324664292        1.0721031746
C                 0.2635423415       -0.5042209316        0.5510075212
N                -0.9357582896       -0.7228861066        0.0463477321
C                -1.2671831022       -1.9252646514       -0.4563204639
C                -2.6453086662       -2.0353637256       -0.9968248372
C                -3.1012170259       -3.1642708825       -1.6921204117
C                -4.4100869934       -3.2051621212       -2.1744040325
C                -5.2729351960       -2.1294757317       -1.9715407223
C                -4.8382416412       -0.9871526521       -1.2816120516
C                -5.7898449111        0.1929268456       -1.0725856173
N                -5.3102583982        1.3390139424       -0.3048003791
C                -3.5313285049       -0.9593230022       -0.8055095313
C                -0.3437697765       -2.9828049082       -0.4352823639
C                 0.9128089147       -2.7500315202        0.1033575854
C                 1.2784924540       -1.4927587898        0.6080614539
C                 2.6428869610       -1.3783255581        1.1978732585
O                 3.2858846922       -2.3851110279        1.4617112850
C                 3.2742615437       -0.0226953743        1.4911799867
S                 3.9985569703        0.8432611683        0.0414987813
O                 3.0109760503        0.8631476322       -1.0474152735
O                 4.5665191994        2.0962353379        0.5670599764
C                 5.4001407918       -0.2047813491       -0.4701578818
C                 6.6912798936        0.2540216359       -0.2562862621
C                 7.7202204019       -0.5858733364       -0.7077313470
C                 7.4112928238       -1.7915635913       -1.3137108909
C                 6.0508495711       -2.1469456934       -1.4710574713
N                 5.6782726997       -3.3499248373       -2.0248361230
N                 5.0592724640       -1.3463690402       -1.0545157768
C                -0.8446035716        2.4697918491        0.0387382298
C                -0.0727781597        2.3490436754       -1.2501593459
C                -1.8887879039        3.3923938748        0.1759492368
H                -4.0285426189        4.7283639158        2.4769819223
H                -4.7138269699        4.0257501969        1.0053142932
H                -3.5979824698        5.3912836915        0.8910769948
H                -2.8770640330        2.7430213047        3.3522171791
H                 0.1074760507        0.9299627708        3.8020192836
H                -1.1007475136       -0.2296738586        3.2518098925
H                -1.5660120363        1.0621230336        4.3695057190
H                -2.4437491796       -4.0085343236       -1.8744564867
H                -4.7559890535       -4.0824710937       -2.7147160899
H                -6.2913968586       -2.1753027401       -2.3532334685
H                -6.7041996458       -0.1739872845       -0.5870760273
H                -6.1099232006        0.5636837537       -2.0558498640
H                -5.0198985213        1.0434351981        0.6260583526
H                -4.4768383533        1.7342727343       -0.7377579558
H                -3.1642290296       -0.0933028475       -0.2690188083
H                -0.6008390857       -3.9655828427       -0.8123110801
H                 1.6536528965       -3.5410587201        0.1560693743
H                 4.0983325275       -0.1653390612        2.1931232913
H                 2.5585754757        0.7069728444        1.8728242649
H                 6.8737971261        1.2090744580        0.2192260039
H                 8.7587881509       -0.2925173623       -0.5820688476
H                 8.1929335416       -2.4609288143       -1.6611218147
H                 4.7030588035       -3.4124793474       -2.2858820399
H                 6.3231948418       -3.7997852382       -2.6585923571
H                 1.0027872349        2.2515154278       -1.0811396841
H                -0.3861347594        1.4540693700       -1.8027547614
H                -0.2530380342        3.2187216560       -1.8895466331
H                -2.1140807017        4.0474680293       -0.6636684920



