%chk=calculation/no_transfer_pubchem_sampling_5_b3lyp/159180656_rwf.chk
%rwf=calculation/no_transfer_pubchem_sampling_5_b3lyp/159180656_rwf.rwf
%nprocshared=14
%mem=3GB
#p b3lyp/6-31g(d) 6D 10F nosymm GFInput td=(50-50,nstate=2) SCF=XQC 

Gaussian input prepared by ASE

0 1
C                 7.4977800856        2.0552217019       -0.8166207118
C                 7.2186547564        0.9150703282        0.1550521471
O                 6.9367104172       -0.3400071416       -0.4711932055
C                 5.6554243034       -0.5017545255       -1.0224126853
C                 5.1558520600       -1.8832816900       -0.5439320082
O                 3.8009818875       -2.1420047832       -0.9319093985
C                 2.7547008466       -1.6970248915       -0.1360933864
C                 2.8982968168       -0.9376932202        1.0292560955
C                 1.7668344326       -0.5531086590        1.7462630507
C                 0.4848155281       -0.9139158802        1.3187281266
O                -0.5439916884       -0.5001571568        2.1250424638
C                -1.8955186852       -0.5999874811        1.6828087987
C                -2.2698007249        0.5810687609        0.7671330126
N                -3.6855650756        0.6289096402        0.4456746577
C                -4.5908298139        1.2603416930        1.3232012759
C                -4.2260164432        1.7689171755        2.5769222862
C                -5.1611421759        2.4137364384        3.3945475376
C                -6.4815756929        2.5500724984        2.9829781901
C                -6.8660097174        2.0348440144        1.7411809926
C                -5.9352017332        1.4065633928        0.9279134987
O                -6.3828593165        0.9544782744       -0.2969081080
C                -5.5476035431        0.1399862377       -1.0339252743
C                -6.0982378678       -0.4773157362       -2.1468281896
C                -5.3074588067       -1.2896158966       -2.9653706515
C                -3.9688428304       -1.4781409612       -2.6427643374
C                -3.4193394260       -0.8642850197       -1.5116069937
C                -4.1929408561       -0.0362381061       -0.6882550741
C                 0.3476131103       -1.6755448726        0.1509856113
C                 1.4784873971       -2.0616311997       -0.5666137617
C                 5.6865264306       -0.3724802786       -2.5669984683
O                 6.5773597825        0.1729742085       -3.1661865693
O                 4.6138360178       -0.8823910191       -3.2098004181
H                 7.7925232059        2.9490655840       -0.2529606840
H                 6.6194039860        2.3039577988       -1.4192213743
H                 8.3028760474        1.7836823586       -1.5036659168
H                 6.3920719764        1.1785801289        0.8358236031
H                 8.1010768336        0.7176766408        0.7720393402
H                 4.9576476276        0.2677312675       -0.6525864460
H                 5.2764177232       -1.9585960220        0.5396306790
H                 5.7497412907       -2.6755117469       -1.0069620909
H                 3.8736409018       -0.6344714725        1.3920690951
H                 1.8642572372        0.0364307301        2.6522265902
H                -2.4946759551       -0.5646748152        2.5958053609
H                -2.0966972981       -1.5620741813        1.1986032326
H                -1.9868502670        1.5131514663        1.2648029431
H                -1.6945291367        0.5455878759       -0.1616741658
H                -3.2070435586        1.6687238791        2.9318576469
H                -4.8407061096        2.8014094121        4.3570851008
H                -7.2127721387        3.0468102035        3.6131007961
H                -7.8858542708        2.1193554721        1.3792505380
H                -7.1474018415       -0.3003676397       -2.3616559145
H                -5.7418225057       -1.7644797578       -3.8395428987
H                -3.3357218739       -2.1067214504       -3.2620821106
H                -2.3737188770       -1.0336096126       -1.2839861296
H                -0.6262511406       -1.9910069477       -0.2049052087
H                 1.3786555567       -2.6596538880       -1.4672539972
H                 4.0347941117       -1.3566011293       -2.5748954922



