%chk=calculation/no_transfer_pubchem_sampling_5_b3lyp/160299960_rwf.chk
%rwf=calculation/no_transfer_pubchem_sampling_5_b3lyp/160299960_rwf.rwf
%nprocshared=14
%mem=3GB
#p b3lyp/6-31g(d) 6D 10F nosymm GFInput td=(50-50,nstate=2) SCF=XQC 

Gaussian input prepared by ASE

0 1
C                 4.3434776355        0.2812811732       -3.2302981440
C                 5.1952805207        0.2423960090       -1.9812069453
C                 6.5890169559        0.1715535931       -2.1119755408
C                 7.4348013396        0.1032568284       -1.0105656895
C                 6.8891286753        0.0932834966        0.2798498382
C                 7.7318094393        0.0141781283        1.4685287600
N                 7.3649551041       -0.0158407249        2.7208468363
C                 8.5491801417       -0.0928693657        3.4347342330
C                 9.5952190139       -0.1066272531        2.5709640193
O                 9.0878410166       -0.0383119008        1.3005354947
C                 5.4976256693        0.1616853984        0.4278911344
C                 4.6423268531        0.2442189164       -0.6771472454
C                 3.1732812158        0.3104306315       -0.4259669407
C                 2.5525900629       -0.6442041184        0.3932997616
C                 1.1865968928       -0.5765717536        0.6641225041
C                 0.3952727548        0.4472885031        0.1329425553
C                -1.0835662524        0.5090525353        0.4347995040
C                -1.9933209512        0.2481734710       -0.7745676433
O                -1.6199062844        0.4566046991       -1.9126205895
C                -3.3923434406       -0.3203939491       -0.4979291414
N                -4.1570162729       -0.3211317523       -1.7348329684
C                -4.1523297558        0.4616046594        0.6098090570
C                -5.4481496134       -0.1789473611        1.0272253370
C                -5.6340817602       -0.9371460039        2.1577203271
N                -6.9458514081       -1.3649129696        2.2361952320
C                -7.6472781717       -0.8743691125        1.1537661070
C                -8.9952185669       -1.0199515731        0.8078504165
C                -9.4292649147       -0.3952426502       -0.3549939663
C                -8.5416600220        0.3534495297       -1.1556018987
C                -7.2032271074        0.4930835160       -0.8112650445
C                -6.7321535094       -0.1249164737        0.3627095664
C                 1.0126208999        1.4064966314       -0.6805431684
C                 2.3759155922        1.3385755931       -0.9546130174
H                 4.0705620326        1.3071536314       -3.5093333450
H                 4.8875283281       -0.1479788844       -4.0779030591
H                 3.4087806830       -0.2727877168       -3.1044960654
H                 7.0201610155        0.1583569821       -3.1103012875
H                 8.5098643367        0.0493158566       -1.1471106516
H                 8.5605544345       -0.1325127923        4.5147845633
H                10.6683757190       -0.1561306432        2.6613370721
H                 5.0823568521        0.1668456195        1.4303958115
H                 3.1454338460       -1.4527509657        0.8122832190
H                 0.7311232556       -1.3339483256        1.2987914118
H                -1.3390047179       -0.1896907471        1.2394685051
H                -1.3570478246        1.5072189642        0.8107021792
H                -3.1987958086       -1.3357061335       -0.0931649417
H                -3.5296401690       -0.4736911609       -2.5212233176
H                -4.8641536252       -1.0497463124       -1.7227427110
H                -4.3354802627        1.4739482886        0.2292607343
H                -3.5129120482        0.5557883038        1.4951988559
H                -4.9257334306       -1.2019754901        2.9318190092
H                -7.3376321002       -1.9073685499        2.9897676307
H                -9.6778629697       -1.5980708444        1.4256840264
H               -10.4704352191       -0.4868231513       -0.6524686219
H                -8.9141997337        0.8263798367       -2.0602892264
H                -6.5174758109        1.0482978783       -1.4433308354
H                 0.4209594539        2.2125711404       -1.1036039427
H                 2.8331050116        2.1081268649       -1.5696717530



