%chk=./calculation/no_transfer_pubchem_sampling_5_b3lyp/160913493.chk
%nprocshared=7
%mem=6GB
#p b3lyp/6-31g(d) opt SCF=XQC 

Gaussian input prepared by ASE

0 1
C                 1.4758545392       -2.4145595202       -0.9748107246
C                 0.1522020360       -1.7703590391       -1.4074481598
C                -0.9646797307       -2.7427686319       -0.9922855502
C                 0.1930489331       -1.6043495473       -2.9498511376
C                 0.2508770022       -2.8779857142       -3.6186707999
N                 0.2832158416       -3.8903386023       -4.1484674573
C                -0.0222907131       -0.4092082288       -0.7696063649
C                 0.9272661983        0.3451399454       -0.1158195729
C                 2.3741896300        0.1767082964        0.0696422605
C                 2.8862029994       -0.1215645658        1.3288250760
C                 4.2499935825       -0.1934962172        1.5385241573
C                 5.1335787519        0.0393380143        0.4870520373
C                 6.6150285917       -0.0312148381        0.6286297991
O                 7.3508195971       -0.2047860554       -0.3040728109
O                 7.1116170668        0.1237454040        1.8711076962
C                 4.6223703093        0.3403247588       -0.7749259816
C                 3.2612900655        0.4202080586       -0.9779481380
C                 0.2805136177        1.5090755879        0.3958868930
C                 0.7536608488        2.5955736207        1.1381844925
C                -0.1658539223        3.5553844199        1.4690092259
C                -1.5231967012        3.4528789767        1.0808838556
C                -2.0087563632        2.3915446819        0.3423856298
C                -1.0757483352        1.4194288208        0.0000636519
N                -1.2327778266        0.2611782221       -0.7185152426
C                -2.5067102618       -0.0686005863       -1.3015443518
C                -3.4505553781       -0.8034546588       -0.3727426619
C                -3.2484706417       -0.8395965146        0.9989556144
C                -4.1436491033       -1.5051758364        1.8190153546
C                -5.2486542427       -2.1374616125        1.2776377592
C                -5.4573180339       -2.1024648310       -0.0909753121
C                -4.5626929042       -1.4398256111       -0.9106469773
C                -2.1629974886        4.6356548382        1.6220059383
N                -1.3729368524        5.4060276361        2.2625569312
C                -0.0458483322        4.8338421962        2.2446637391
H                 1.5243463041       -2.4948861051        0.1080294211
H                 2.3362776206       -1.8506529467       -1.3199524073
H                 1.5438152906       -3.4155718852       -1.3968019126
H                -1.1351269253       -2.6807673816        0.0801929880
H                -1.9061985386       -2.5611155355       -1.4980398452
H                -0.6649285962       -3.7611362122       -1.2305198516
H                 1.0790436775       -1.0266850484       -3.2287008028
H                -0.6864698917       -1.0708285729       -3.3196662952
H                 2.2041565152       -0.3047737987        2.1463334587
H                 4.6084721056       -0.4647663251        2.5237802142
H                 6.4229260393        0.3034151191        2.5244862802
H                 5.3184484193        0.5166155970       -1.5807618611
H                 2.8734353094        0.6779497872       -1.9531353815
H                 1.7912230089        2.6596322755        1.4300073475
H                -3.0517724422        2.3276604833        0.0728758481
H                -2.3719186258       -0.6455018797       -2.2182784851
H                -2.9803463365        0.8769218477       -1.5969048608
H                -2.3903958241       -0.3485406922        1.4337317347
H                -3.9752999511       -1.5272591988        2.8854613356
H                -5.9453633699       -2.6560800213        1.9186558842
H                -6.3167582961       -2.5940079132       -0.5215865514
H                -4.7276940648       -1.4151014649       -1.9790389400
H                -3.2073357742        4.8782890072        1.5145218896
H                 0.6415823827        5.5485143993        1.7840074381
H                 0.2872841831        4.6798355981        3.2746064864



