%chk=calculation/no_transfer_pubchem_sampling_5_b3lyp/16974157_rwf.chk
%rwf=calculation/no_transfer_pubchem_sampling_5_b3lyp/16974157_rwf.rwf
%nprocshared=14
%mem=3GB
#p b3lyp/6-31g(d) 6D 10F nosymm GFInput td=(50-50,nstate=2) SCF=XQC 

Gaussian input prepared by ASE

0 1
C                 4.6504828480        3.5567276860        0.1900456015
C                 3.8832471954        2.2968994786       -0.1769774211
O                 2.9896045740        2.3058913224       -1.0211429837
N                 4.2516235493        1.1574740719        0.4783375436
C                 3.5634155110       -0.1017894701        0.2357055728
C                 2.2030889502       -0.1996540902        0.9683839635
C                 1.3769159917       -1.3374187405        0.4558104423
N                 1.3751543711       -2.5470723880        0.9691433484
C                 0.5201474894       -3.2814622119        0.1605871506
C                 0.1424021551       -4.6276634877        0.2404771618
C                -0.7467464050       -5.1166699490       -0.7115059082
C                -1.2606515041       -4.2870883477       -1.7284909860
C                -0.8996509849       -2.9451231894       -1.8254518096
C                -0.0009333702       -2.4640757364       -0.8705942559
N                 0.5754050926       -1.2169278465       -0.6707539601
C                 0.3170395242       -0.0142016264       -1.4525948132
C                -0.8917976746        0.7811426969       -1.0223832198
C                -1.7148750885        0.4721722244       -0.0114268077
C                -2.8913064556        1.2314735802        0.4413859784
C                -3.7244474051        0.6627878640        1.4206267205
C                -4.8573009067        1.3307448310        1.8834741521
C                -5.1816582321        2.5899891730        1.3783977968
C                -4.3600882951        3.1735922435        0.4091399290
C                -3.2295978485        2.5055229278       -0.0518438529
H                 3.9504765663        4.2926638059        0.5982084456
H                 5.0784181405        3.9849537218       -0.7212073285
H                 5.4529197156        3.3893116263        0.9152913522
H                 4.9373222609        1.2101966322        1.2171901532
H                 4.2146935700       -0.9235634303        0.5457895727
H                 3.4111459945       -0.1873477744       -0.8434910374
H                 2.3683111582       -0.3572290046        2.0379743424
H                 1.6689360934        0.7472328974        0.8451478085
H                 0.5397922266       -5.2602733934        1.0285552697
H                -1.0559685761       -6.1576130501       -0.6719214646
H                -1.9578252683       -4.7017491273       -2.4514676182
H                -1.3098522632       -2.3069789841       -2.6027674312
H                 1.2049828013        0.6291280640       -1.4201976025
H                 0.2082811356       -0.3197430505       -2.5022178735
H                -1.0544636504        1.6773294120       -1.6198124620
H                -1.5219989361       -0.4444933188        0.5441591962
H                -3.4780135476       -0.3193780710        1.8175041285
H                -5.4854609725        0.8665879239        2.6392875479
H                -6.0625550560        3.1152630999        1.7374038194
H                -4.6002587306        4.1573872795        0.0140887411
H                -2.5983587434        2.9830457256       -0.7958699027



