%chk=./calculation/no_transfer_pubchem_sampling_5_b3lyp/16974157.chk
%nprocshared=7
%mem=6GB
#p b3lyp/6-31g(d) opt SCF=XQC 

Gaussian input prepared by ASE

0 1
C                 4.3146301185        3.5608792932        0.0551047245
C                 3.6796934978        2.2348188252       -0.2978986438
O                 2.9386915250        2.0730961882       -1.2465303268
N                 4.0216065900        1.2210787811        0.5318798842
C                 3.4440826838       -0.0936687034        0.3756171533
C                 2.0669433860       -0.2055661547        1.0594074646
C                 1.2981192287       -1.3428458166        0.4914301444
N                 1.2388721660       -2.5292236679        1.0250875347
C                 0.4542959204       -3.2771989824        0.1840260592
C                 0.0503327743       -4.6042063442        0.2675251180
C                -0.7635796652       -5.0895012740       -0.7342882170
C                -1.1754800150       -4.2851365707       -1.7984597714
C                -0.7847582688       -2.9652024649       -1.9017152109
C                 0.0372946237       -2.4710076502       -0.9018188290
N                 0.6116285416       -1.2409957441       -0.6898889216
C                 0.3965314841       -0.0602274809       -1.4827949090
C                -0.7752402901        0.7616855581       -1.0291102669
C                -1.5713301110        0.4586222280       -0.0076903888
C                -2.7145053192        1.2323191998        0.4573441257
C                -3.5950079611        0.6456071975        1.3679292857
C                -4.6995621816        1.3325509314        1.8334000147
C                -4.9443283258        2.6264823220        1.4047869524
C                -4.0735633720        3.2259387972        0.5091910559
C                -2.9707655802        2.5390217638        0.0398394641
H                 3.9232566162        3.9150220433        1.0069381310
H                 4.0802404645        4.2881377729       -0.7163971822
H                 5.3935306635        3.4539843242        0.1376659042
H                 4.5483698854        1.4167189342        1.3670943110
H                 4.1271712501       -0.8412517985        0.7800122249
H                 3.3338779345       -0.2643992345       -0.6987222112
H                 2.1901342874       -0.3677144586        2.1298723598
H                 1.5152022714        0.7232425616        0.8996881155
H                 0.3679155935       -5.2213911267        1.0925970008
H                -1.0963338583       -6.1165773971       -0.6987201710
H                -1.8177339074       -4.7068539681       -2.5575932455
H                -1.1142612615       -2.3472668479       -2.7239152591
H                 1.2927536402        0.5720131453       -1.4726977256
H                 0.2354458295       -0.3726564948       -2.5211529972
H                -0.9267157865        1.6538289694       -1.6188698303
H                -1.3978000024       -0.4578332367        0.5443451305
H                -3.4094055347       -0.3644667134        1.7058478956
H                -5.3714133945        0.8588016037        2.5344736239
H                -5.8058024516        3.1665162946        1.7690039723
H                -4.2555786786        4.2377981819        0.1764510350
H                -2.2974580104        3.0270292136       -0.6482975787



