%chk=calculation/no_transfer_pubchem_sampling_5_b3lyp/17866770_rwf.chk
%rwf=calculation/no_transfer_pubchem_sampling_5_b3lyp/17866770_rwf.rwf
%nprocshared=14
%mem=3GB
#p b3lyp/6-31g(d) 6D 10F nosymm GFInput td=(50-50,nstate=2) SCF=XQC 

Gaussian input prepared by ASE

0 1
F                 6.4213527652       -1.4559567003        0.5061637544
C                 5.2477932254       -0.8198207831        0.2743509535
C                 5.3048935056        0.5158900206       -0.1585390356
C                 4.1289374509        1.2121879308       -0.4099558308
C                 2.9190654851        0.5387671103       -0.2169347811
N                 1.6192405397        0.9675565074       -0.3840563863
C                 0.7407845227       -0.0608671106       -0.0685795047
C                -0.6959655451        0.0980295514       -0.1509098951
C                -1.6610936688       -0.8312337859        0.1304902429
C                -3.0006524149       -0.3545670671       -0.0530410385
C                -4.2209773560       -1.0309379675        0.1407169579
C                -5.4176396772       -0.3706336047       -0.0994451367
C                -5.4281253031        0.9670619389       -0.5344262270
C                -4.2379064701        1.6603303569       -0.7343190376
C                -3.0355063480        0.9930682666       -0.4917730771
S                -1.4101341688        1.6374676520       -0.6664885208
C                 1.4832154234       -1.1680412652        0.3071132596
C                 2.8630350824       -0.8159320809        0.2221493648
C                 4.0659159593       -1.5054037879        0.4719227357
H                 6.2754752436        0.9820589941       -0.2893138528
H                 4.1569594323        2.2452176276       -0.7450947408
H                 1.3481720813        1.8897603309       -0.6895648927
H                -1.4300177820       -1.8375439450        0.4624814277
H                -4.2173603039       -2.0645098306        0.4767097523
H                -6.3591202152       -0.8917325679        0.0498047920
H                -6.3750301746        1.4670103466       -0.7171371840
H                -4.2463142682        2.6931563438       -1.0701717184
H                 1.0776122918       -2.1233919442        0.6089411442
H                 4.0833896869       -2.5369905378        0.8075644737



