%chk=./calculation/no_transfer_pubchem_sampling_5_b3lyp/18133976.chk
%nprocshared=7
%mem=6GB
#p b3lyp/6-31g(d) opt SCF=XQC 

Gaussian input prepared by ASE

0 1
O                -3.5224419603       -0.5839108347       -2.0933872818
S                -2.3363871692       -1.2914702317       -1.6931315856
O                -1.6748586640       -2.0833050828       -2.6945088841
C                -2.6874661331       -2.2918255999       -0.2063523750
C                -2.3637479893       -1.3014967806        0.8873413674
C                -1.0178073698       -0.6618568730        0.5160645232
N                -0.5407283778        0.2799032873        1.5159774867
C                -1.5025912585        1.2289383080        2.0611742300
C                -2.1585671731        2.1444554740        1.0735984602
C                -1.7283293413        3.2795072081        0.4483202734
C                -2.7698228164        3.6690803338       -0.4308929316
C                -3.7557992908        2.7469243706       -0.2741195910
O                -3.3982139154        1.8241102504        0.6334272972
C                 0.7260701212        0.9016839780        1.1422216316
C                 1.7832425361       -0.1496210761        0.9134481860
C                 2.0163514273       -1.0324192408        1.9408746178
C                 2.9494913608       -2.0679656902        1.8242010675
C                 3.6546053490       -2.2196636234        0.6642456883
C                 3.4584019988       -1.3339614161       -0.4139887962
C                 4.1878583204       -1.4877739820       -1.6122396613
C                 4.0093085599       -0.6332167390       -2.6613603038
C                 3.0940939763        0.4227432099       -2.5485237938
C                 2.3727020950        0.5992865173       -1.4012152669
C                 2.5159075693       -0.2723329892       -0.2972922620
C                -1.1633954002       -0.1329888978       -0.9178032391
H                -3.7257631039       -2.6033951799       -0.2238729041
H                -2.0219638364       -3.1494951633       -0.2239834066
H                -3.1470852345       -0.5434415214        0.9019992334
H                -2.2971329741       -1.7723869183        1.8686544211
H                -0.2669970731       -1.4640697651        0.4902383159
H                -0.9646418949        1.8272557907        2.8014709298
H                -2.2794525581        0.6666375357        2.5830406489
H                -0.7943224454        3.7816720191        0.5999725171
H                -2.7776042360        4.5182271129       -1.0825377958
H                -4.7148951825        2.6315073388       -0.7366479961
H                 1.0370602775        1.5213771959        1.9899195535
H                 0.6107569516        1.5621908641        0.2751746534
H                 1.4485637588       -0.9262239570        2.8532036794
H                 3.1026113951       -2.7421707695        2.6538541677
H                 4.3742180485       -3.0180607183        0.5542060764
H                 4.8955817570       -2.3016775528       -1.6803557819
H                 4.5690163202       -0.7593118666       -3.5759954582
H                 2.9624778643        1.1019606573       -3.3778928682
H                 1.6887818745        1.4324108319       -1.3448306062
H                -1.6083470322        0.8542196714       -0.9699935085
H                -0.2387401314       -0.1700504858       -1.4838587279



