%chk=calculation/no_transfer_pubchem_sampling_5_b3lyp/18737771_rwf.chk
%rwf=calculation/no_transfer_pubchem_sampling_5_b3lyp/18737771_rwf.rwf
%nprocshared=14
%mem=3GB
#p b3lyp/6-31g(d) 6D 10F nosymm GFInput td=(50-50,nstate=2) SCF=XQC 

Gaussian input prepared by ASE

0 1
C                -0.5172645666        2.4678529828       -0.5485481094
C                -1.3633891158        1.2606262328       -0.2184721240
C                -2.7410176121        1.3471338234       -0.3238053771
C                -3.5753991762        0.2432017759       -0.0257575028
N                -4.9425405704        0.3331216804       -0.1320220494
C                -5.7825546803       -0.8131287971        0.1816263130
C                -5.5636708321        1.5793624602       -0.5549382328
C                -2.9501166407       -0.9592494045        0.3866366923
C                -1.5734607922       -1.0869783706        0.5046718852
C                -1.0291915472       -2.4203153115        0.9538478495
C                -0.7473931605        0.0414935194        0.1979562566
N                 0.6320403658        0.1245696393        0.2505239388
N                 1.2906759128       -0.9098275134        0.6083899874
C                 2.6695431882       -0.7038140488        0.6249027666
N                 3.3656700983        0.3572970962        0.3461390336
C                 4.7134481490        0.1099699235        0.4981567981
C                 5.7312931527        1.0523633676        0.2734422869
C                 7.0546029043        0.6774845007        0.4622779179
C                 7.3848532646       -0.6268406075        0.8734503629
C                 6.3945779791       -1.5783903537        1.1025917055
C                 5.0619416000       -1.2047765925        0.9136044785
S                 3.6018078385       -2.1464506732        1.1129858527
H                -1.1492865269        3.3112085733       -0.8447668340
H                 0.1836062828        2.2520413502       -1.3606753522
H                 0.0946772089        2.7704012334        0.3065376884
H                -3.1746128529        2.2872370257       -0.6425317259
H                -5.6583611780       -1.1351942109        1.2242749713
H                -5.5603179383       -1.6696515281       -0.4688141582
H                -6.8286115796       -0.5408318213        0.0349420959
H                -5.3338767422        2.4024786701        0.1349800140
H                -6.6465682184        1.4501695143       -0.5776887623
H                -5.2356185561        1.8755603602       -1.5603263588
H                -3.5574044889       -1.8247138995        0.6237537546
H                -1.8512741613       -3.1227357191        1.1296742769
H                -0.4392059220       -2.3259454231        1.8704386236
H                -0.3482932524       -2.8476416955        0.2116266193
H                 5.4610252478        2.0546828978       -0.0435218753
H                 7.8477733835        1.3999048762        0.2906792118
H                 8.4274900361       -0.8977311753        1.0148998443
H                 6.6544044984       -2.5839453580        1.4199042370



