%chk=./calculation/no_transfer_pubchem_sampling_5_b3lyp/18737771.chk
%nprocshared=7
%mem=6GB
#p b3lyp/6-31g(d) opt SCF=XQC 

Gaussian input prepared by ASE

0 1
C                -0.3972856374        2.2060402135       -0.6061909220
C                -1.3343598096        1.0615458293       -0.3611086493
C                -2.7029781613        1.2446806069       -0.3235676325
C                -3.5878936706        0.1857415130       -0.0867022992
N                -4.9538026218        0.3751170520       -0.1003404414
C                -5.8188427911       -0.6846025118        0.3586354110
C                -5.4789971940        1.7190729934       -0.0705196795
C                -3.0275333051       -1.0798429920        0.1245701258
C                -1.6629307656       -1.2932835805        0.0910172288
C                -1.0791722255       -2.6544144698        0.3261165374
C                -0.8066901853       -0.2150812347       -0.1490607407
N                 0.5559452611       -0.4306736210       -0.3304836653
N                 1.3225051643       -0.4020409736        0.6438132509
C                 2.6554724126       -0.4604591384        0.5961041903
N                 3.4491639562        0.3585019009       -0.0045419774
C                 4.7419668798        0.1894543876        0.3749199811
C                 5.8291531390        0.9183089420       -0.1020951948
C                 7.0934814734        0.5993476057        0.3451829011
C                 7.2950963690       -0.4283910813        1.2635266956
C                 6.2316761117       -1.1624592395        1.7555060094
C                 4.9599374821       -0.8461980745        1.3151503086
S                 3.4435385436       -1.5735354212        1.7615651746
H                -0.9411644652        3.0954393074       -0.9134917201
H                 0.3251984775        1.9425796494       -1.3780519931
H                 0.1633112005        2.4380355691        0.3000615655
H                -3.0738219325        2.2426194348       -0.4880581883
H                -5.6206291692       -0.9654026662        1.4006995685
H                -5.6987153209       -1.5682623192       -0.2710630648
H                -6.8548635090       -0.3622983104        0.2813525897
H                -5.1365128185        2.2815685323        0.8068469974
H                -6.5657745131        1.6809733555       -0.0503826146
H                -5.1822758516        2.2608077902       -0.9709995858
H                -3.6567956402       -1.9316789944        0.3216905076
H                -1.8621387966       -3.4035466716        0.4087484076
H                -0.4915671658       -2.6637574554        1.2445855623
H                -0.4142522580       -2.9247872874       -0.4940240318
H                 5.6598877025        1.7092248214       -0.8148108195
H                 7.9438990702        1.1542995222       -0.0218644828
H                 8.2956166296       -0.6550895483        1.5995251640
H                 6.3831489349       -1.9575544356        2.4687865259



