%chk=./calculation/no_transfer_pubchem_sampling_5_b3lyp/20489180.chk
%nprocshared=7
%mem=6GB
#p b3lyp/6-31g(d) opt SCF=XQC 

Gaussian input prepared by ASE

0 1
C               -10.6297710300       -0.5001207161       -0.0043595644
C               -10.2913410895        0.9858459375        0.0311496839
C                -8.8444991738        1.2809296772       -0.3658330870
C                -7.8281654021        0.7468828520        0.6415970283
C                -6.4028727593        1.2341582466        0.3761575660
C                -5.8195254764        0.8056887537       -0.9719884605
C                -5.7740800093       -0.7048657716       -1.2113341935
C                -5.0246347256       -1.5587546312       -0.1825349095
C                -3.4923767123       -1.4364367277       -0.1164265727
C                -2.8260150391       -1.3589020948       -1.4906012596
C                -1.3236576887       -1.5835943038       -1.3524450236
C                -0.7272457827       -0.7416177801       -0.2660697406
N                 0.5901030333       -0.6075636497       -0.2691461752
C                 1.1567931279        0.1125742380        0.6940553624
C                 2.6140342699        0.2515222574        0.6737546301
C                 3.3646621789       -0.3519089542       -0.3346100700
C                 4.7364563774       -0.2221034681       -0.3506346981
C                 5.3756546787        0.5142226349        0.6426555123
O                 6.7526859930        0.6337712165        0.5193674711
C                 7.5761706196        0.6788131499        1.5824018681
O                 7.2284210013        0.6112950085        2.7292951382
C                 9.0062870804        0.7747290062        1.1079557706
C                 9.4825245063       -0.6057332792        0.6343131261
C                10.8939430076       -0.5721603713        0.0327185748
C                10.9144225225       -0.5231843232       -1.4963402193
C                10.2884737452        0.7359465260       -2.0837840820
C                 4.6397312600        1.1275212566        1.6474189379
C                 3.2650364639        0.9896564467        1.6588109714
N                 0.4876443406        0.7149823784        1.6758418405
C                -0.8239912964        0.5827930223        1.6790877743
C                -1.5193145629       -0.1444278858        0.7190615106
C                -3.0122613661       -0.2579489765        0.7330126489
H               -10.0547570012       -1.0496890194        0.7363339067
H               -11.6858540949       -0.6521952071        0.2070472948
H               -10.4145800238       -0.9157093323       -0.9868035008
H               -10.4780110071        1.3762541686        1.0343731511
H               -10.9557137984        1.5144155678       -0.6569455095
H                -8.7187407154        2.3636163663       -0.4496865515
H                -8.6555710338        0.8470571377       -1.3494899611
H                -8.1197561214        1.0803433886        1.6412913091
H                -7.8449412943       -0.3430037332        0.6426465979
H                -5.7591469282        0.8753892147        1.1816599759
H                -6.3927586346        2.3268923768        0.4169499523
H                -4.8160523981        1.2257184693       -1.0664715428
H                -6.4169905908        1.2498254391       -1.7713784586
H                -5.3462571388       -0.8799118243       -2.2002502508
H                -6.8013605192       -1.0749374258       -1.2450325714
H                -5.2534773771       -2.6007709845       -0.4238835243
H                -5.4293662061       -1.3678573117        0.8130595321
H                -3.1307887086       -2.3498007536        0.3743523822
H                -3.2451587562       -2.1155761621       -2.1563862163
H                -3.0067018835       -0.3774995339       -1.9326464384
H                -0.8022140096       -1.3718856300       -2.2876688601
H                -1.1235861097       -2.6311945851       -1.1062253620
H                 2.8535374967       -0.9205686208       -1.0949783576
H                 5.3312928146       -0.6819288732       -1.1248977732
H                 9.6245684139        1.1155667399        1.9386530074
H                 9.0600061288        1.4921540507        0.2906643759
H                 9.4628759518       -1.2805029278        1.4924324907
H                 8.7804115349       -0.9940162313       -0.1057295450
H                11.4326297773       -1.4697668310        0.3432642084
H                11.4391652137        0.2866036034        0.4290710892
H                11.9544305851       -0.5869241900       -1.8259044947
H                10.3930435644       -1.3999277100       -1.8878038731
H                 9.2229994960        0.7780128003       -1.8735585045
H                10.4176315869        0.7481713085       -3.1640404479
H                10.7638107142        1.6253561980       -1.6749631354
H                 5.1355499246        1.6998420255        2.4142920123
H                 2.6758858794        1.4561493720        2.4321644336
H                -1.3456637083        1.0805201591        2.4890008134
H                -3.3567658710       -0.3679333403        1.7651097526
H                -3.4269212444        0.6776981662        0.3516342339



