%chk=calculation/no_transfer_pubchem_sampling_5_b3lyp/20489180_rwf.chk
%rwf=calculation/no_transfer_pubchem_sampling_5_b3lyp/20489180_rwf.rwf
%nprocshared=14
%mem=3GB
#p b3lyp/6-31g(d) 6D 10F nosymm GFInput td=(50-50,nstate=2) SCF=XQC 

Gaussian input prepared by ASE

0 1
C               -10.8479951278       -0.4833364867        0.0153025873
C               -10.5033014560        1.0109541508        0.0169788406
C                -9.0466574269        1.3291653133       -0.3609746193
C                -8.0050514904        0.8192429872        0.6466637528
C                -6.5646366630        1.2816682612        0.3610061011
C                -5.9579262552        0.8034936472       -0.9714007266
C                -5.8771125518       -0.7229078342       -1.1664935364
C                -5.1043468093       -1.5594039529       -0.1234020929
C                -3.5618392711       -1.4473186685       -0.0594317362
C                -2.8752086917       -1.5130334985       -1.4352036332
C                -1.3590869725       -1.7038651944       -1.2881039289
C                -0.7426836664       -0.7913222419       -0.2509235102
N                 0.5920255483       -0.6787183675       -0.2615858075
C                 1.1667869225        0.1021960058        0.6655062409
C                 2.6449992170        0.2261462599        0.6417234038
C                 3.4040560805       -0.4547588700       -0.3227540695
C                 4.7892898703       -0.3389042207       -0.3422533600
C                 5.4297428430        0.4609004794        0.6049354103
O                 6.8118559976        0.5783693418        0.4593287002
C                 7.6592009364        0.5793443223        1.5407219220
O                 7.3003004751        0.4924736092        2.6893207579
C                 9.0919348394        0.6619630271        1.0618383606
C                 9.5875016744       -0.6932055645        0.5078405286
C                11.0477675933       -0.6720051451        0.0052137747
C                11.2377987171       -0.3588683890       -1.4899413975
C                10.7706519042        1.0270157455       -1.9504254104
C                 4.6970016253        1.1543830783        1.5699225601
C                 3.3104456479        1.0285019548        1.5812093494
N                 0.5004268861        0.7816067505        1.6190884968
C                -0.8248931094        0.6574666774        1.6159610391
C                -1.5328646486       -0.1196270731        0.6949120038
C                -3.0434029254       -0.2168491836        0.7102954237
H               -10.2693464132       -1.0378644771        0.7625876114
H               -11.9092009126       -0.6428152840        0.2382276116
H               -10.6433854198       -0.9339794126       -0.9643014087
H               -10.7192318940        1.4343716141        1.0085108881
H               -11.1691465903        1.5296281932       -0.6859014860
H                -8.9371548480        2.4192249813       -0.4577542158
H                -8.8403958705        0.9136453749       -1.3576921612
H                -8.2860371763        1.1721444132        1.6496216637
H                -8.0378702604       -0.2770035734        0.6960797861
H                -5.9226763923        0.9594208849        1.1918345682
H                -6.5391498067        2.3807640147        0.3741694719
H                -4.9605667118        1.2487488930       -1.0800637121
H                -6.5470490080        1.2142620351       -1.8023813508
H                -5.4622137623       -0.9208427336       -2.1635334783
H                -6.9002924935       -1.1211612124       -1.1982350960
H                -5.3352963905       -2.6121719757       -0.3375366447
H                -5.5108297679       -1.3705787113        0.8799473977
H                -3.2219961007       -2.3286016464        0.5078216727
H                -3.2913532211       -2.3332986359       -2.0335100291
H                -3.0764877249       -0.5872694041       -1.9915899217
H                -0.8385648832       -1.5516946598       -2.2403778078
H                -1.1407704697       -2.7404587686       -0.9915860898
H                 2.8925501734       -1.0727631533       -1.0518527720
H                 5.3867653147       -0.8579719861       -1.0852288639
H                 9.7027507326        0.9592388563        1.9191732848
H                 9.1658359704        1.4394011373        0.2959948267
H                 9.4899673263       -1.4348981112        1.3102336230
H                 8.9199754492       -1.0210174015       -0.2992168208
H                11.4920065531       -1.6577244822        0.1946366197
H                11.6320060901        0.0389381372        0.6075509353
H                12.3049749081       -0.4690895214       -1.7259110508
H                10.7180074097       -1.1273963242       -2.0797130914
H                 9.6844987555        1.1429055829       -1.8644993716
H                11.0313303290        1.1945242617       -3.0018342479
H                11.2422869180        1.8240738866       -1.3618919144
H                 5.1999641340        1.7704560937        2.3034063190
H                 2.7236393334        1.5565231052        2.3242764057
H                -1.3603115025        1.2049360153        2.3936254233
H                -3.4001640439       -0.2455169658        1.7488130543
H                -3.4618514464        0.7001400389        0.2750279467



