%chk=calculation/no_transfer_pubchem_sampling_5_b3lyp/24905276_rwf.chk
%rwf=calculation/no_transfer_pubchem_sampling_5_b3lyp/24905276_rwf.rwf
%nprocshared=14
%mem=3GB
#p b3lyp/6-31g(d) 6D 10F nosymm GFInput td=(50-50,nstate=2) SCF=XQC 

Gaussian input prepared by ASE

0 1
C                -5.2491343702        2.0788788043       -0.0647373600
C                -3.9252809285        1.3842921152        0.2838374363
C                -4.0045280983        0.6713824424        1.6397006718
C                -3.5431557750        0.4182720200       -0.8527589781
N                -2.2383723209       -0.2029337330       -0.6754072334
N                -1.1020900165        0.5421986521       -0.7331471307
C                -0.0789990035       -0.2782067161       -0.5046366771
C                 1.2931408040        0.2595178187       -0.4910785619
C                 1.6330010573        1.3285558669       -1.3717116554
C                 2.8975622579        1.8629084167       -1.3737394917
C                 3.9067276977        1.3733982942       -0.4994386524
C                 5.2243589021        1.9010904024       -0.4821492017
C                 6.1701384978        1.4078273139        0.3893829973
C                 5.8383829900        0.3626314420        1.2860188739
C                 4.5694605894       -0.1719822356        1.2918832016
C                 3.5724770015        0.3111376122        0.4013933286
C                 2.2554715072       -0.2203777186        0.3825803467
C                -0.5604431145       -1.6166418012       -0.3040211107
C                -0.0823797009       -2.9433523501       -0.1386632772
N                 1.2414273424       -3.2652111876       -0.0755015518
N                -0.9533643540       -3.9570264356       -0.0196025549
C                -2.2674924012       -3.6800439052       -0.0941252274
N                -2.8581543109       -2.5080338303       -0.3047395073
C                -1.9637420887       -1.5099467123       -0.4140317456
H                -5.5218597133        2.8055781024        0.7084656836
H                -6.0689051276        1.3526531329       -0.1405976743
H                -5.1856802029        2.6144278354       -1.0196829439
H                -3.1355369934        2.1455782946        0.3360575203
H                -3.0504785988        0.2047468307        1.9061835221
H                -4.7703999042       -0.1143903319        1.6285231189
H                -4.2618484777        1.3810944844        2.4342990280
H                -4.2611517920       -0.4045771290       -0.9227703202
H                -3.5313233576        0.9502628958       -1.8105534044
H                 0.8684186210        1.7084506892       -2.0410260428
H                 3.1449332581        2.6738359194       -2.0549852376
H                 5.4746038527        2.7059752288       -1.1693860060
H                 7.1750086229        1.8211991955        0.3943483924
H                 6.5915681102       -0.0159790245        1.9716885970
H                 4.3123191987       -0.9733202296        1.9808773125
H                 2.0010158499       -0.9966969871        1.0998317701
H                 1.4499897568       -4.2520685768       -0.1507065109
H                 1.9228778960       -2.6177239410       -0.4445638405
H                -2.9285621626       -4.5373809651        0.0186920972



