%chk=./calculation/no_transfer_pubchem_sampling_5_b3lyp/25255201.chk
%nprocshared=7
%mem=6GB
#p b3lyp/6-31g(d) opt SCF=XQC 

Gaussian input prepared by ASE

0 1
C                 4.4080041838       -1.7142297918        3.1923729529
C                 3.4173049135       -1.1974229411        2.2012738589
C                 2.0531794329       -1.2989306599        2.4500407125
N                 1.1059294353       -0.8733000916        1.6378724511
C                 1.5134327523       -0.3086477280        0.4976791870
N                 0.6336625308        0.1641863534       -0.4132071593
C                -0.7581087320        0.1802389302       -0.4192515043
C                -1.5390934115       -0.3416410446        0.6053458243
C                -2.9175070481       -0.2846520035        0.5335262591
C                -3.5711335274        0.2844313325       -0.5616497632
N                -4.9571678468        0.2965168499       -0.6937608825
C                -5.6167844010        1.5382895079       -1.0498844276
C                -6.9678785744        1.2302393524       -1.7075048684
N                -7.8354598567        0.4192985103       -0.8753570236
C                -8.4661322763        1.1419970949        0.2083366858
C                -7.1240442366       -0.7731660389       -0.4613726783
C                -5.7676193361       -0.4938848794        0.2073020601
C                -2.7736743968        0.7970543972       -1.5910237528
C                -1.3997364511        0.7508163798       -1.5187368942
N                 2.7928370379       -0.1564352204        0.1527045815
C                 3.7440157515       -0.5861220176        0.9770360952
C                 5.0722490996       -0.3444288868        0.4529254379
C                 6.3280985997       -0.5888168552        0.9171135076
C                 7.3459790493       -0.1598389029        0.0222077537
C                 8.7337948977       -0.2479173937        0.1657590010
C                 9.5474114170        0.2344311699       -0.8328926619
C                 9.0043709456        0.8088590311       -1.9839311376
C                 7.6390259678        0.9077006691       -2.1496645750
C                 6.8130627225        0.4227373569       -1.1454736718
S                 5.0759404020        0.4313032088       -1.1181416681
H                 5.0330639065       -2.4873675204        2.7463948263
H                 3.8867115079       -2.1436296516        4.0456504374
H                 5.0505664920       -0.9102560453        3.5503322848
H                 1.6978628954       -1.7543229925        3.3673968308
H                 1.0864568716        0.5644623797       -1.2246279638
H                -1.0567494470       -0.7818799714        1.4612467264
H                -3.4854385962       -0.6824943838        1.3598677649
H                -4.9952063049        2.1076482998       -1.7386381970
H                -5.7772329509        2.1579939131       -0.1504862716
H                -6.7889735527        0.6702140183       -2.6305628588
H                -7.4824435943        2.1602072644       -1.9572982066
H                -7.7703907493        1.5495951887        0.9547090191
H                -9.1569082311        0.4694579582        0.7160598443
H                -9.0383267208        1.9679602932       -0.2131510099
H                -7.7584530327       -1.3469035982        0.2171068882
H                -6.9468207617       -1.3703923305       -1.3611707355
H                -5.2715354612       -1.4477080775        0.3907664164
H                -5.9232205750        0.0152474902        1.1735823096
H                -3.2365465079        1.2207945251       -2.4692446573
H                -0.8093065259        1.1532226059       -2.3304716379
H                 6.5588148373       -1.0535677655        1.8563215343
H                 9.1515752697       -0.6926444349        1.0570216555
H                10.6205391197        0.1702830093       -0.7300604742
H                 9.6643082402        1.1801799128       -2.7536175811
H                 7.2136928270        1.3505292241       -3.0367696445



