%chk=calculation/no_transfer_pubchem_sampling_5_b3lyp/25255201_rwf.chk
%rwf=calculation/no_transfer_pubchem_sampling_5_b3lyp/25255201_rwf.rwf
%nprocshared=14
%mem=3GB
#p b3lyp/6-31g(d) 6D 10F nosymm GFInput td=(50-50,nstate=2) SCF=XQC 

Gaussian input prepared by ASE

0 1
C                 4.4643685184       -1.6345200234        3.1680161003
C                 3.4628343354       -1.1503720841        2.1541261547
C                 2.0983662968       -1.2820671375        2.4170349009
N                 1.1098926494       -0.8970387696        1.6092228813
C                 1.5073817575       -0.3401849543        0.4526224239
N                 0.5874352511        0.0975063566       -0.4640271469
C                -0.8193070396        0.0895789842       -0.4736549357
C                -1.6272968188       -0.4288612721        0.5452366339
C                -3.0184575669       -0.3779424359        0.4336564767
C                -3.6566826263        0.1676623568       -0.6906648834
N                -5.0650085774        0.1889152304       -0.8503479893
C                -5.6725316249        1.5003188193       -1.1247493634
C                -7.1103940567        1.3199422814       -1.6333465041
N                -7.9600419020        0.5304715756       -0.7412007084
C                -8.4379107783        1.2575427443        0.4292368004
C                -7.2989656518       -0.7374329770       -0.4328496211
C                -5.8617970342       -0.5897099264        0.0956693345
C                -2.8308064045        0.6728420462       -1.7136585814
C                -1.4495627151        0.6422742353       -1.6036351444
N                 2.7852698102       -0.1547593215        0.0765929420
C                 3.7637654792       -0.5484530181        0.9046916437
C                 5.1129984551       -0.2936174965        0.3854003408
C                 6.3563264873       -0.5369992229        0.9094370581
C                 7.4338685946       -0.1249287706        0.0576376097
C                 8.8221430008       -0.2220377131        0.2767017283
C                 9.6995944785        0.2438347431       -0.6905932503
C                 9.2153515489        0.8109420318       -1.8853227619
C                 7.8499939927        0.9179397547       -2.1246727919
C                 6.9623948824        0.4484897580       -1.1498514000
S                 5.2117372892        0.4694152634       -1.2126018099
H                 5.1175748886       -2.4181796923        2.7643919779
H                 3.9449894139       -2.0563043683        4.0347332853
H                 5.1084956780       -0.8253663303        3.5342877570
H                 1.7837787438       -1.7355905837        3.3575413830
H                 1.0309148355        0.4943694204       -1.2820281703
H                -1.1667010757       -0.8567080460        1.4244166929
H                -3.6057626287       -0.7703265402        1.2565677484
H                -5.0837068602        2.0219022777       -1.8831389544
H                -5.6604733395        2.1326799105       -0.2171636458
H                -7.0704196816        0.8051158518       -2.6029781082
H                -7.5748032350        2.3001864343       -1.7934469297
H                -7.6564210978        1.5979536252        1.1320092263
H                -9.1304623918        0.6177312382        0.9881407610
H                -8.9934215389        2.1422532635        0.0974117975
H                -7.9062401296       -1.2881817800        0.2951342896
H                -7.2632313668       -1.3311791789       -1.3560922400
H                -5.4149403008       -1.5844172477        0.1954814929
H                -5.8709682199       -0.1314187370        1.1033327230
H                -3.2779528538        1.0705688203       -2.6196686496
H                -0.8432352465        1.0378399914       -2.4165907486
H                 6.5308223099       -0.9950471930        1.8722026805
H                 9.1957956431       -0.6598435915        1.1989085681
H                10.7713096102        0.1719485645       -0.5280644996
H                 9.9184601989        1.1704051363       -2.6316361629
H                 7.4816366140        1.3561526962       -3.0478574116



