%chk=calculation/no_transfer_pubchem_sampling_5_b3lyp/30361303_rwf.chk
%rwf=calculation/no_transfer_pubchem_sampling_5_b3lyp/30361303_rwf.rwf
%nprocshared=14
%mem=3GB
#p b3lyp/6-31g(d) 6D 10F nosymm GFInput td=(50-50,nstate=2) SCF=XQC 

Gaussian input prepared by ASE

0 1
C                10.4386104532       -0.1170817157       -1.4709837447
O                 9.6238978438        0.9812130062       -1.0940440647
C                 8.3309925007        0.7314133933       -0.7331383045
C                 7.5673243498        1.8532794990       -0.3817887193
C                 6.2418910952        1.7037491261        0.0019479914
C                 5.6321684945        0.4364647859        0.0540411589
C                 4.2203184823        0.2589201418        0.4658005921
C                 3.4929804883        1.2352617898        1.1772363723
C                 2.1811171071        0.9860515404        1.5069596606
C                 1.6281209895       -0.2578462230        1.1114265466
N                 0.3174282700       -0.5899089093        1.3571096106
C                -0.1932897873       -1.9425882362        1.1222824050
C                -1.5084972445       -1.9113481956        0.3256438194
C                -2.4142243099       -0.7153401697        0.7302256506
C                -3.8884188857       -1.1301321421        0.7656686550
O                -4.2602157683       -2.0983565477        1.4197533195
N                -4.7266089665       -0.3167398901        0.0450390247
C                -6.1257687037       -0.3965918834       -0.0981724575
C                -6.9331313261       -1.3586512230        0.5139418721
C                -8.3152378171       -1.3457785518        0.3034003396
C                -8.8980061957       -0.3817175731       -0.5121437735
C                -8.1008283809        0.5879952863       -1.1312321519
C                -6.7238418285        0.5828878507       -0.9270192744
O                -5.8445122161        1.4835335446       -1.4804985688
C                -6.3602756420        2.4890367696       -2.3392333632
C                -1.9974824923       -0.1928354207        2.1196041112
C                -0.5529055642        0.3245092912        2.0910813361
N                 2.3862862604       -1.1732297289        0.4682578874
N                 3.6426601049       -0.9118430697        0.1508717807
C                 6.4092575143       -0.6733255771       -0.3086101346
C                 7.7407778511       -0.5382654811       -0.6975421233
H                10.5544678081       -0.8357010802       -0.6487741365
H                11.4139652545        0.3051860188       -1.7201894043
H                10.0340905649       -0.6380352073       -2.3489037533
H                 8.0325023239        2.8331438765       -0.4264172066
H                 5.6716877430        2.5963151774        0.2434120915
H                 3.9623013696        2.1629066971        1.4889122457
H                 1.6072193313        1.7113380394        2.0715344367
H                -0.3481853080       -2.4457553885        2.0881637634
H                 0.5761531561       -2.4958129450        0.5871503319
H                -2.0467755551       -2.8466548430        0.5099568796
H                -1.2925900391       -1.8561798050       -0.7469213519
H                -2.2734043060        0.1022791906        0.0100360713
H                -4.3080996286        0.4431355997       -0.4745251582
H                -6.4664957665       -2.1031265389        1.1435619087
H                -8.9307400314       -2.1000049110        0.7849448626
H                -9.9717562027       -0.3723468192       -0.6758862313
H                -8.5589578962        1.3377831452       -1.7661772943
H                -5.5002580878        3.0766376326       -2.6654818603
H                -7.0677519836        3.1410331612       -1.8112231460
H                -6.8553592705        2.0505907330       -3.2149469010
H                -2.6526315530        0.6238070572        2.4443945164
H                -2.1162517438       -1.0004229341        2.8494279675
H                -0.5374249934        1.3067168199        1.5966298402
H                -0.1930120029        0.4803353864        3.1222060240
H                 5.9509430866       -1.6556988497       -0.2833380013
H                 8.3057780543       -1.4242067003       -0.9647759482



