%chk=./calculation/no_transfer_pubchem_sampling_5_b3lyp/366282.chk
%nprocshared=7
%mem=6GB
#p b3lyp/6-31g(d) opt SCF=XQC 

Gaussian input prepared by ASE

0 1
C                -2.9199180521       -1.8168539939       -3.1437447252
C                -1.8923447828       -1.7191508895       -2.0751369990
N                -1.0578052264       -2.7803633394       -1.8498971491
C                -0.2990683132       -2.4343373489       -0.8503418167
N                 0.6791097686       -3.2075477722       -0.3036463951
C                 0.9471693148       -4.5250908768       -0.8244405012
C                 1.3590963628       -2.6705504875        0.7336835197
N                 2.3580983294       -3.2416842340        1.4455612403
C                 2.6841523243       -2.3376868142        2.3431602213
N                 1.9527044342       -1.2136530864        2.2713710764
C                 2.1101061600       -0.0097788852        3.0561234034
C                 3.1807678334        0.8669215756        2.4514064145
C                 4.5049427148        0.7418312972        2.8484108277
C                 5.4862801540        1.5194352226        2.2589599197
C                 5.1508281177        2.4223390858        1.2645087510
C                 3.8316093667        2.5478320771        0.8625307551
C                 2.8489118987        1.7727557458        1.4524682842
C                 1.0777750224       -1.3916215933        1.2188072522
C                 0.0560592883       -0.5350433886        0.7015583982
O                -0.2351258910        0.5763421442        1.1101593053
N                -0.5927634613       -1.1638515062       -0.3703160604
C                -1.6344938132       -0.6985054841       -1.1853404487
C                -2.2516277530        0.5886749830       -0.9941223130
C                -2.9835787353        1.2298816549       -1.9041770767
C                -3.6676522662        2.5524830163       -1.7139815255
C                -5.1731933650        2.3708218248       -1.9434780681
C                -3.4145680971        3.1937130618       -0.3535809498
H                -2.6117646259       -1.2624920079       -4.0301102412
H                -3.8708010093       -1.4174244665       -2.7964518254
H                -3.0378586401       -2.8619686637       -3.4171276748
H                 0.0442065410       -5.1333779269       -0.7686672719
H                 1.2519135938       -4.4550502749       -1.8689870378
H                 1.7412941061       -4.9609662751       -0.2236793457
H                 3.4540539628       -2.4869244017        3.0737592945
H                 2.3757451330       -0.2960831511        4.0774439044
H                 1.1516675232        0.5137764760        3.0529445755
H                 4.7700661562        0.0391347973        3.6260370203
H                 6.5137807206        1.4196589881        2.5763613400
H                 5.9173256107        3.0282941034        0.8045454680
H                 3.5665766127        3.2520709173        0.0880288279
H                 1.8182985770        1.8681490108        1.1445347093
H                -2.0624198155        1.0394224234       -0.0332663593
H                -3.1303085740        0.7987365298       -2.8837908164
H                -3.2910850717        3.2313767346       -2.4919260162
H                -5.6878647763        3.3262063456       -1.8682552570
H                -5.5856088875        1.6960397351       -1.1961740609
H                -5.3656989053        1.9522002106       -2.9289894156
H                -3.9038695948        4.1644556648       -0.3046513456
H                -3.8128641423        2.5698976776        0.4431587950
H                -2.3502578280        3.3375575646       -0.1861656078



