%chk=calculation/no_transfer_pubchem_sampling_5_b3lyp/366282_rwf.chk
%rwf=calculation/no_transfer_pubchem_sampling_5_b3lyp/366282_rwf.rwf
%nprocshared=14
%mem=3GB
#p b3lyp/6-31g(d) 6D 10F nosymm GFInput td=(50-50,nstate=2) SCF=XQC 

Gaussian input prepared by ASE

0 1
C                -3.0632870808       -1.8491600119       -3.0586126382
C                -1.9844576494       -1.7766370457       -2.0253460088
N                -1.1464547441       -2.8611780204       -1.8339255215
C                -0.3553566417       -2.5115034568       -0.8523226443
N                 0.6492099983       -3.2856645635       -0.3198187587
C                 0.8954313033       -4.6233243852       -0.8519851778
C                 1.3768082707       -2.7399577053        0.7013326048
N                 2.3961311575       -3.3369043409        1.3754770733
C                 2.7581635251       -2.4222751530        2.2677601200
N                 2.0305084126       -1.2800751491        2.2178403672
C                 2.2352861645       -0.0651107747        3.0276397619
C                 3.2716098526        0.8779498670        2.4467092492
C                 4.5928015023        0.8491795145        2.9075166864
C                 5.5528507213        1.7050075647        2.3655363341
C                 5.1965668228        2.5998748679        1.3555773279
C                 3.8785456310        2.6377238343        0.8946631810
C                 2.9184432658        1.7836373837        1.4374514422
C                 1.1152983429       -1.4585563058        1.1825053646
C                 0.0747332740       -0.5992449400        0.7053398363
O                -0.2140885167        0.5225154587        1.1220923780
N                -0.6233350858       -1.2306167960       -0.3616086589
C                -1.6964849746       -0.7433131098       -1.1508311649
C                -2.3001856927        0.5667850710       -0.9556415832
C                -2.9483647482        1.2649386401       -1.9053777849
C                -3.6477136610        2.5916229387       -1.7168030454
C                -5.1265839578        2.4766875831       -2.1433445943
C                -3.5284792117        3.1750553854       -0.3041070129
H                -2.7284288378       -1.4652234426       -4.0318348640
H                -3.9394243715       -1.2647428918       -2.7590676265
H                -3.3598969655       -2.8923224845       -3.2033997407
H                -0.0060569397       -5.2340881938       -0.7537885953
H                 1.1591339404       -4.5607321090       -1.9113603849
H                 1.7147225487       -5.0603251132       -0.2822867665
H                 3.5577314077       -2.5537685783        2.9849713340
H                 2.5359579810       -0.3978841529        4.0256974510
H                 1.2626774123        0.4228576429        3.1017165533
H                 4.8731992307        0.1585214056        3.7006830388
H                 6.5746151384        1.6752705227        2.7343985499
H                 5.9416093466        3.2686927276        0.9329891669
H                 3.5953145780        3.3379988746        0.1133890728
H                 1.8904845458        1.8138302704        1.0862523810
H                -2.1940417928        0.9845868576        0.0380258691
H                -2.9917758699        0.8731217159       -2.9211303191
H                -3.1731035786        3.3038807189       -2.4127903080
H                -5.6214816496        3.4547251147       -2.1078271200
H                -5.6693311155        1.7957028574       -1.4766926023
H                -5.2196204390        2.0897299440       -3.1650794917
H                -4.0169933049        4.1548329172       -0.2542843901
H                -4.0107031498        2.5243561139        0.4354965714
H                -2.4821863953        3.3035249320       -0.0067179125



