%chk=./calculation/no_transfer_pubchem_sampling_5_b3lyp/4042596.chk
%nprocshared=7
%mem=6GB
#p b3lyp/6-31g(d) opt SCF=XQC 

Gaussian input prepared by ASE

0 1
C                 7.0321472091       -1.5332859215        2.8689460202
C                 6.4195507058       -1.5820773308        1.4737136942
C                 6.7386242083       -0.3472713194        0.6292497398
C                 6.1332506709        0.9593363798        1.1458649099
C                 4.6156055701        1.0129218003        0.9978794518
O                 4.3134783854        0.9924614327       -0.3856905461
C                 3.0265629076        1.0045735254       -0.7864720934
C                 2.8194850707        0.9620947701       -2.1713483047
C                 1.5466571532        0.9721823020       -2.6856170352
C                 0.4387942265        1.0279724033       -1.8352986961
C                -0.9041251839        1.0388635621       -2.4390400126
O                -1.1273013667        0.9519208896       -3.6214582522
O                -1.8805503225        1.1770823537       -1.5148250238
C                -3.2255717631        1.1788643713       -1.9915369115
C                -3.8541961408       -0.1927851917       -1.9126986196
C                -3.7891828886       -0.9687660535       -3.0217314783
C                -4.4699665329       -2.2403487471       -3.1323910814
O                -4.3900700561       -3.0183018218       -4.0475932102
O                -5.3332551857       -2.5279316782       -2.1053358310
C                -5.3922879772       -1.7860383326       -0.9841102332
C                -6.3535122216       -2.2094724568       -0.0424849063
C                -6.5013445887       -1.5328374431        1.1266116643
C                -5.6299902933       -0.4690877455        1.4597770891
C                -5.7206415406        0.1534248048        2.7193089223
C                -4.8220495927        1.1129915354        3.0977278724
C                -3.7753198121        1.4494402990        2.2345897097
C                -3.6779948432        0.8782378971        0.9912197654
C                -4.6281451400       -0.0578148571        0.5393099650
C                -4.5925471657       -0.6616722604       -0.7631947211
C                 0.6437735709        1.0680419263       -0.4595916953
C                 1.9215816760        1.0562953120        0.0637199683
H                 8.1057430048       -1.3693822670        2.8067736772
H                 6.8592415701       -2.4729152993        3.3886357045
H                 6.5963387220       -0.7352518041        3.4649615638
H                 6.8102978730       -2.4576281040        0.9503360624
H                 5.3389632165       -1.7123390713        1.5551001700
H                 6.3772357117       -0.5090822820       -0.3877092472
H                 7.8233365988       -0.2289521921        0.5827775398
H                 6.5538520630        1.7885282208        0.5744051725
H                 6.3854860645        1.1096872522        2.1955125671
H                 4.2303104852        1.9369392542        1.4510688976
H                 4.1475255984        0.1565740785        1.4988127997
H                 3.6840284484        0.9212312337       -2.8146301268
H                 1.3780811248        0.9381468981       -3.7509201928
H                -3.2147067295        1.5004918829       -3.0388944793
H                -3.7775810515        1.9023189140       -1.3874150739
H                -3.2456248465       -0.6488549762       -3.8974615790
H                -6.9626094323       -3.0616759038       -0.2974940732
H                -7.2609344371       -1.8233169071        1.8368553008
H                -6.5060952365       -0.1600903842        3.3915304589
H                -4.8963678254        1.5855637337        4.0655470677
H                -3.0281733830        2.1602295090        2.5558470765
H                -2.8261773515        1.1164723896        0.3806619724
H                -0.2029416842        1.1056906713        0.2076850830
H                 2.0493107574        1.0886027480        1.1343005377



