%chk=./calculation/no_transfer_pubchem_sampling_5_b3lyp/40700264.chk
%nprocshared=7
%mem=6GB
#p b3lyp/6-31g(d) opt SCF=XQC 

Gaussian input prepared by ASE

0 1
C                -5.3883771470       -1.2517041485        0.3049631496
C                -4.9706194196       -1.3472595502       -1.1288209646
C                -5.8781894818       -1.5975154599       -2.1424602725
C                -5.4847551819       -1.7017227660       -3.4736392370
C                -4.1608643365       -1.5569233728       -3.8382522304
C                -3.2355598810       -1.3046017466       -2.8403236941
S                -1.5101077303       -1.0686218446       -2.9813726079
C                -1.4767555634       -0.8649111264       -1.2407506738
N                -0.2925861754       -0.6257732431       -0.5804628875
C                -0.3650718471       -0.3616336696        0.8503824956
C                 0.2722588543        0.9498073565        1.2179363800
C                 1.0142359088        1.0859576883        2.3855630739
C                 1.6220726072        2.2982534112        2.6635735217
C                 1.4613526437        3.3359627189        1.7583642161
N                 0.7404194040        3.2259027972        0.6561759586
C                 0.1610455757        2.0698822987        0.3970764267
C                 0.8661118910       -0.5299162523       -1.3039557733
O                 0.8706008495       -0.6183726246       -2.5196463220
C                 2.1117338551       -0.2629194209       -0.5636690709
C                 3.1230993231        0.5645178684       -0.9521858529
C                 4.0918137166        0.5232548448        0.0905628406
C                 5.3167195162        1.1462985021        0.3258055078
C                 5.9819996714        0.8475860856        1.4935681759
C                 5.4576688014       -0.0553646931        2.4221474796
C                 4.2489016173       -0.6874509653        2.2126828106
C                 3.5751381974       -0.3815859609        1.0406524436
O                 2.3762024939       -0.8571224992        0.6344602106
N                -2.6016874674       -0.9495481448       -0.6225293209
C                -3.6283006956       -1.1995400283       -1.4906588921
H                -4.6106507315       -0.7662303491        0.8869600389
H                -5.5522868287       -2.2491926461        0.7129645410
H                -6.3169467551       -0.6923529836        0.3981175830
H                -6.9224983843       -1.7143793684       -1.8908710692
H                -6.2279578274       -1.8977816848       -4.2319149699
H                -3.8487699401       -1.6355282425       -4.8675433748
H                 0.1072407930       -1.1800947790        1.4017591036
H                -1.4325189882       -0.3491059544        1.0939914467
H                 1.1218220250        0.2482851998        3.0600401493
H                 2.2137783099        2.4293719188        3.5559492117
H                 1.9253653509        4.2996159028        1.9188104866
H                -0.4154599711        2.0329454321       -0.5187229856
H                 3.1532476204        1.1395375555       -1.8542520969
H                 5.7229394878        1.8416129121       -0.3917763800
H                 6.9314713446        1.3171181636        1.7021640669
H                 6.0123342256       -0.2618810175        3.3247744993
H                 3.8403892696       -1.3868781138        2.9243668587



