%chk=calculation/no_transfer_pubchem_sampling_5_b3lyp/40700264_rwf.chk
%rwf=calculation/no_transfer_pubchem_sampling_5_b3lyp/40700264_rwf.rwf
%nprocshared=14
%mem=3GB
#p b3lyp/6-31g(d) 6D 10F nosymm GFInput td=(50-50,nstate=2) SCF=XQC 

Gaussian input prepared by ASE

0 1
C                -5.1733781811       -1.2126496284        0.3305448420
C                -4.7676460930       -1.2384313469       -1.1203181390
C                -5.6834888472       -1.4566298402       -2.1475123644
C                -5.2986395854       -1.4770494390       -3.4993004319
C                -3.9727551800       -1.2793144979       -3.8702109912
C                -3.0409812499       -1.0610360472       -2.8522483696
S                -1.3114934054       -0.7710188916       -2.9910595681
C                -1.2518879346       -0.6723668452       -1.2171088114
N                -0.0607189649       -0.4788782176       -0.4983007353
C                -0.2111830960       -0.2619173267        0.9715734791
C                -0.2900980341        1.2027195043        1.3582193172
C                 0.8049031109        1.8806597934        1.9030744908
C                 0.6722363480        3.2247805996        2.2479289560
C                -0.5576125472        3.8464993189        2.0360896535
N                -1.6248057059        3.2176932293        1.5267576258
C                -1.4817517828        1.9284753614        1.2023424909
C                 1.1406560493       -0.3547540483       -1.1847731231
O                 1.1700820212       -0.2970099771       -2.4136655053
C                 2.4467680599       -0.3032219802       -0.4872020822
C                 3.6251048652        0.0832567717       -1.0570304469
C                 4.6437174385       -0.0893151400       -0.0620828873
C                 6.0322613718        0.1193657056        0.0036506288
C                 6.6891987433       -0.1891958772        1.1885182730
C                 5.9922281509       -0.6997455736        2.3028886262
C                 4.6165035342       -0.9160819276        2.2642633626
C                 3.9796037551       -0.5989520676        1.0699490868
O                 2.6397148557       -0.7295764628        0.8160077570
N                -2.3877084735       -0.8152391263       -0.6006934786
C                -3.4219889983       -1.0384848220       -1.4948493439
H                -4.9773416308       -0.2324978827        0.7819655395
H                -4.6061914796       -1.9462284330        0.9152340115
H                -6.2395489659       -1.4319580397        0.4434465411
H                -6.7285610746       -1.6155791783       -1.8928761775
H                -6.0495941267       -1.6501081755       -4.2652563972
H                -3.6750538650       -1.2947496865       -4.9144663300
H                 0.6210361782       -0.7488958135        1.4703354220
H                -1.1294432132       -0.7787019978        1.2453567440
H                 1.7458144632        1.3618346814        2.0628556117
H                 1.5034566774        3.7785663293        2.6746803688
H                -0.6976808207        4.8956259650        2.2921786950
H                -2.3614891987        1.4328426748        0.7976913756
H                 3.7310123988        0.4367412820       -2.0719332057
H                 6.5763295482        0.5095943998       -0.8513644415
H                 7.7620457797       -0.0367483801        1.2616156395
H                 6.5396163115       -0.9304198527        3.2121254452
H                 4.0687517934       -1.3119010932        3.1129628468



