%chk=calculation/no_transfer_pubchem_sampling_5_b3lyp/42695475_rwf.chk
%rwf=calculation/no_transfer_pubchem_sampling_5_b3lyp/42695475_rwf.rwf
%nprocshared=14
%mem=3GB
#p b3lyp/6-31g(d) 6D 10F nosymm GFInput td=(50-50,nstate=2) SCF=XQC 

Gaussian input prepared by ASE

0 1
C                -6.0183357301        4.1690470868        1.4031525586
O                -6.0851700892        2.7824599092        1.1152975486
C                -5.1039751132        2.2371695998        0.3368147779
C                -4.0259096937        2.9460023539       -0.2002007034
C                -3.0823239997        2.2713557250       -0.9842651073
C                -3.1900438068        0.9060910169       -1.2471794300
C                -2.1651457428        0.1755324975       -2.0900071726
N                -1.3460683636       -0.7672556640       -1.3063789913
C                -0.1757085906       -0.2086089623       -0.6258603175
C                 1.0732694357       -0.1147234840       -1.5319767835
C                 2.2667380483        0.4462401228       -0.7908916840
C                 2.6255004578        1.7864799154       -0.8887245031
C                 3.7087496002        2.2969942977       -0.1593993446
C                 4.4482653351        1.4711555576        0.6823120284
O                 5.5178620999        1.8639538579        1.4317240527
C                 5.9176954336        3.2204949381        1.3528885168
C                 4.0934981648        0.1014214798        0.7920577973
O                 4.8696927753       -0.6393767818        1.6328142167
C                 4.5660459140       -2.0163368068        1.7759557150
C                 3.0166290224       -0.3889763744        0.0597134779
C                -1.6157983456       -2.1085219610       -1.4310933004
O                -2.4888421299       -2.5394603838       -2.1853910272
C                -0.8220400513       -3.0855053561       -0.5967799282
C                -0.1539397357       -4.1277892032       -1.2522268030
C                 0.5249341297       -5.1009893040       -0.5198071596
C                 0.5172726785       -5.0601024451        0.8765279547
C                -0.1741194490       -4.0424337897        1.5367584136
C                -0.8374790786       -3.0567154116        0.8042241626
C                -4.2842829708        0.2105354838       -0.7019186740
C                -5.2273567880        0.8616410135        0.0788221897
H                -5.1034018923        4.4243503863        1.9546077978
H                -6.0668098780        4.7749784374        0.4883884248
H                -6.8871992323        4.3883438467        2.0265733117
H                -3.9077428368        4.0084999702       -0.0203821409
H                -2.2503132019        2.8350125789       -1.4020637711
H                -1.4954538373        0.8958157172       -2.5734641101
H                -2.6523596182       -0.4114244309       -2.8707508957
H                -0.4498231588        0.7867386528       -0.2595421682
H                 0.0663366838       -0.8078907570        0.2512214524
H                 0.8466434264        0.5073254642       -2.4063713226
H                 1.2967905454       -1.1209859705       -1.9081731479
H                 2.0668562708        2.4524210127       -1.5420178682
H                 3.9692576967        3.3444944692       -0.2601892109
H                 5.1207657699        3.8984563191        1.6880232110
H                 6.2169475554        3.4964698295        0.3324724583
H                 6.7770342626        3.3176158879        2.0190708605
H                 4.6624999083       -2.5535451247        0.8227719529
H                 5.2950708895       -2.4093058863        2.4871430858
H                 3.5528404034       -2.1700267925        2.1712008395
H                 2.7454082110       -1.4368902193        0.1358116463
H                -0.1817294787       -4.1734958083       -2.3368929007
H                 1.0494164530       -5.8988453844       -1.0388240157
H                 1.0371393794       -5.8249569815        1.4473624021
H                -0.2033051270       -4.0178476853        2.6228948342
H                -1.3863224755       -2.2742277342        1.3218181281
H                -4.3914780815       -0.8519337489       -0.9048624895
H                -6.0766820539        0.3310760242        0.4982751551



