%chk=calculation/no_transfer_pubchem_sampling_5_b3lyp/43881999_rwf.chk
%rwf=calculation/no_transfer_pubchem_sampling_5_b3lyp/43881999_rwf.rwf
%nprocshared=14
%mem=3GB
#p b3lyp/6-31g(d) 6D 10F nosymm GFInput td=(50-50,nstate=2) SCF=XQC 

Gaussian input prepared by ASE

0 1
C                10.3265766219        2.1289099514        1.7818941542
C                 8.9650145336        1.7705624871        1.2324061140
C                 8.1771171474        2.7265769018        0.5795208625
C                 6.9364178367        2.3748412449        0.0480762675
C                 6.4496323641        1.0752378926        0.1672905381
C                 7.2322531642        0.1086838752        0.8084037918
N                 6.7519037239       -1.2168080787        0.9991257553
S                 6.1838491649       -2.1918822421       -0.2860013395
O                 6.6888590123       -1.7118111012       -1.5738312651
O                 6.4565907901       -3.5521428772        0.1899921985
C                 4.4167434379       -1.9176419021       -0.2709824432
C                 3.6626066226       -2.2659400465        0.8520509969
C                 2.2824202614       -2.0991873705        0.8509507695
C                 1.6471598288       -1.5864565150       -0.2956298782
N                 0.2582533183       -1.4011666308       -0.3896869939
C                -0.7087494896       -1.5709334940        0.5867409660
O                -0.4554152544       -1.8886789504        1.7412059500
C                -2.1177133175       -1.3152251465        0.1315205350
C                -2.5462100902       -1.4579151584       -1.1967407021
C                -3.8773691749       -1.2275883727       -1.5337445334
C                -4.7999687039       -0.8330930188       -0.5548125264
N                -6.1465617922       -0.5639327859       -0.9715045688
C                -6.4377392486        0.7666792235       -1.5756991509
C                -6.3281926211        1.9411784060       -0.6234859296
C                -5.1829041297        2.7459840672       -0.6168670347
C                -5.0751829318        3.8265420252        0.2608460557
C                -6.1163980452        4.1123725433        1.1443267770
C                -7.2646733290        3.3161884740        1.1438118134
C                -7.3716567291        2.2387882360        0.2651749425
S                -7.4223603220       -1.4309083434       -0.2612490504
C                -7.2584992578       -3.0428806812       -1.0532081210
O                -7.2004162970       -1.6305150529        1.1740365690
O                -8.6578872489       -0.8006093928       -0.7395573678
C                -4.3765370179       -0.6905150824        0.7744806601
C                -3.0510148505       -0.9491623347        1.1104271475
C                 2.4167608378       -1.2489941706       -1.4221465774
C                 3.7966402922       -1.4137317023       -1.4148370445
C                 8.4813217880        0.4621775122        1.3317690061
H                10.3582948766        3.1694171528        2.1219980969
H                11.1054987635        2.0129734602        1.0166302131
H                10.6020153960        1.4879976010        2.6260445793
H                 8.5363833754        3.7486762300        0.4892232843
H                 6.3303424600        3.1261283053       -0.4512134545
H                 5.4705279458        0.8168609238       -0.2207435423
H                 7.3599049744       -1.8057463526        1.5631763710
H                 4.1532245850       -2.6670106352        1.7327962092
H                 1.6916446721       -2.3539836832        1.7186914170
H                -0.0594877854       -1.0074031798       -1.2644993927
H                -1.8636501206       -1.8020137367       -1.9697329637
H                -4.2167402443       -1.3620436563       -2.5567377547
H                -5.7288270781        0.8848304917       -2.4018381842
H                -7.4402353762        0.7024175238       -2.0006096296
H                -4.3703662791        2.5280453944       -1.3068010851
H                -4.1804240274        4.4434093851        0.2529531161
H                -6.0361159314        4.9532401560        1.8280807305
H                -8.0810930842        3.5377554456        1.8259224309
H                -8.2667023628        1.6226160233        0.2633561142
H                -7.4285618655       -2.9258386771       -2.1242229403
H                -8.0149202590       -3.6933460457       -0.6083920753
H                -6.2600025657       -3.4356143452       -0.8522479939
H                -5.0904226395       -0.3935208940        1.5323976087
H                -2.7151055445       -0.8607709466        2.1380819148
H                 1.9292943273       -0.8578089427       -2.3126203209
H                 4.3940094395       -1.1593230487       -2.2833899813
H                 9.0868424528       -0.2969453389        1.8240338894



