%chk=./calculation/no_transfer_pubchem_sampling_5_b3lyp/43881999.chk
%nprocshared=7
%mem=6GB
#p b3lyp/6-31g(d) opt SCF=XQC 

Gaussian input prepared by ASE

0 1
C                 9.3615430939        1.8110792233        2.9606215994
C                 8.2767504604        1.5060198056        1.9722651394
C                 7.4891997812        2.5231173307        1.4465410134
C                 6.5066051077        2.2344869412        0.5167321898
C                 6.2875438832        0.9347381314        0.0988566820
C                 7.0741291469       -0.0907208968        0.6109336257
N                 6.8466608324       -1.4077190848        0.2223408526
S                 6.2601780022       -1.8374695204       -1.2907885997
O                 6.7192438913       -0.9323524635       -2.3023838608
O                 6.5834027294       -3.2283695211       -1.4118368191
C                 4.4971440674       -1.6577795220       -1.0949083583
C                 3.8635696504       -2.2947014822       -0.0461329378
C                 2.4951351061       -2.1765728662        0.1073072144
C                 1.7592780495       -1.4176052050       -0.8044356252
N                 0.3794350639       -1.2692066248       -0.7184545396
C                -0.4799348680       -1.7292404766        0.2488995364
O                -0.1297333219       -2.3273389738        1.2432299676
C                -1.9077173874       -1.4097868408       -0.0215271298
C                -2.4509891678       -1.3411933517       -1.3027109209
C                -3.7929648651       -1.0796529447       -1.4824514338
C                -4.6362112758       -0.8624611288       -0.3878779855
N                -5.9975189625       -0.6478421086       -0.5906658091
C                -6.4404213702        0.3539949721       -1.5563605600
C                -6.2749814649        1.7266345920       -0.9600523725
C                -5.0535852414        2.3834658794       -1.0398003088
C                -4.8759458803        3.6070908379       -0.4187894125
C                -5.9168122885        4.1806491287        0.2911420392
C                -7.1348530086        3.5276784321        0.3781609930
C                -7.3139459074        2.3039567219       -0.2422294681
S                -7.1037640430       -0.9526906406        0.6471259940
C                -6.8384277204       -2.7204098022        0.9178025451
O                -6.8083415530       -0.2336722538        1.8499932671
O                -8.4029229363       -0.7797002062        0.0752268405
C                -4.0915557684       -0.9376464813        0.8957053163
C                -2.7526208525       -1.2192290013        1.0694730919
C                 2.4155325018       -0.7834601509       -1.8634480997
C                 3.7830101703       -0.9049258842       -2.0076624666
C                 8.0628798235        0.2045634306        1.5446055109
H                 9.0986967634        2.6729848237        3.5692362140
H                10.2884172473        2.0408928219        2.4343846616
H                 9.5460514894        0.9604352393        3.6121895218
H                 7.6481194527        3.5421147459        1.7668836341
H                 5.8989482303        3.0307893833        0.1131438037
H                 5.5242602731        0.7104777956       -0.6271140485
H                 7.4898615824       -2.0918560024        0.5889638838
H                 4.4486804439       -2.8823221921        0.6423388957
H                 1.9874716593       -2.6627908745        0.9232447205
H                -0.0304866886       -0.7092004140       -1.4531967754
H                -1.8416103811       -1.5393143293       -2.1736489081
H                -4.1964045566       -1.0615420114       -2.4830108501
H                -5.8658707496        0.2495018269       -2.4775631339
H                -7.4906885277        0.1408082889       -1.7560645044
H                -4.2378023283        1.9334145714       -1.5888452681
H                -3.9231927967        4.1115725923       -0.4869580338
H                -5.7770654618        5.1343100817        0.7782565272
H                -7.9467798989        3.9706720694        0.9348908468
H                -8.2569123900        1.7846933069       -0.1651490216
H                -7.1141457732       -3.2267653540        0.0026669786
H                -7.4866029769       -3.0225009196        1.7310223364
H                -5.8016308195       -2.8968533471        1.1706048823
H                -4.7196381078       -0.7439460797        1.7489525180
H                -2.3323095488       -1.2815495342        2.0616429809
H                 1.8479707147       -0.1975664920       -2.5726248828
H                 4.3135048849       -0.4251947665       -2.8152227490
H                 8.6711637858       -0.5969922253        1.9409330599



