%chk=./calculation/no_transfer_pubchem_sampling_5_b3lyp/45533333.chk
%nprocshared=7
%mem=6GB
#p b3lyp/6-31g(d) opt SCF=XQC 

Gaussian input prepared by ASE

0 1
C                 6.7520578123       -2.8817971441       -0.9162824844
C                 5.7479842284       -1.7689675043       -0.9068652267
C                 4.3972295334       -2.0646105941       -0.9243073613
C                 3.4593356719       -1.0402419760       -0.9160139210
N                 2.1062243002       -1.1939585676       -0.9299628562
C                 1.4836753444       -0.0837231452       -0.9330477917
N                 0.1249612896        0.0813065761       -0.9369641519
C                -0.3871084184        1.4200915902       -0.7561697668
C                -0.4364379607        1.8652551813        0.6851461967
C                -0.1382678236        1.0132757174        1.7424582330
C                -0.2171392156        1.5080080900        3.0330378115
C                -0.5928722416        2.8281150229        3.2247794620
C                -0.8701283381        3.5927864018        2.1026492362
N                -0.7937854199        3.1290472473        0.8687707007
C                -0.7015840377       -1.0387290896       -1.0586523887
O                -0.2799109794       -2.1101924713       -1.4287106455
C                -2.1187771825       -0.8808084168       -0.6990545013
C                -3.0966485094       -1.8629003630       -0.9540540720
C                -4.2585638080       -1.3800932605       -0.3945094536
C                -5.5945743357       -2.0293585076       -0.3590976046
N                -3.9415668880       -0.1819263899        0.1617581422
C                -4.7413866267        0.7989208606        0.8684903213
C                -5.4769680727        0.1929933226        2.0603464291
C                -5.6891163604        1.5261775069       -0.0847566399
N                -2.6657368631        0.1226823719       -0.0189342879
S                 2.5384738783        1.3734731785       -0.8880107110
C                 3.9049263975        0.2967572678       -0.8894071299
C                 5.2524804822        0.5989970569       -0.8699446542
C                 6.1798972075       -0.4309238050       -0.8772030419
C                 7.6431819518       -0.1090463004       -0.8553059490
H                 7.4354979486       -2.7783268220       -1.7581254573
H                 7.3473128977       -2.8688752566       -0.0033299217
H                 6.2538383818       -3.8445380022       -0.9900157284
H                 4.0481193345       -3.0846138455       -0.9501103225
H                -1.3968038612        1.4767101295       -1.1637906354
H                 0.2368457219        2.1246193237       -1.3176102234
H                 0.1497025199       -0.0107702957        1.5629935663
H                 0.0124438476        0.8719847338        3.8762692317
H                -0.6659745038        3.2515780339        4.2144631461
H                -1.1665165430        4.6303657951        2.1901024294
H                -2.9490311143       -2.7824161802       -1.4800470388
H                -5.7955059656       -2.4483198817        0.6268661598
H                -6.3909820680       -1.3322561258       -0.6088186226
H                -5.6071519984       -2.8424412152       -1.0804144045
H                -3.9976484272        1.5166587960        1.2343244271
H                -5.8549727142        0.9920532413        2.6924537932
H                -6.3182874905       -0.4148003495        1.7411162611
H                -4.7999544355       -0.4205375705        2.6500058333
H                -6.4583506001        0.8594585926       -0.4654107214
H                -6.1741218884        2.3444790189        0.4401433052
H                -5.1338060566        1.9348225455       -0.9253185861
H                 5.5771372280        1.6284471910       -0.8493476954
H                 8.1326430760       -0.4867438313       -1.7527456408
H                 8.1262248976       -0.5724118380        0.0043349040
H                 7.7994837974        0.9652609558       -0.8032929522



