%chk=calculation/no_transfer_pubchem_sampling_5_b3lyp/45712212_rwf.chk
%rwf=calculation/no_transfer_pubchem_sampling_5_b3lyp/45712212_rwf.rwf
%nprocshared=14
%mem=3GB
#p b3lyp/6-31g(d) 6D 10F nosymm GFInput td=(50-50,nstate=2) SCF=XQC 

Gaussian input prepared by ASE

0 1
C                -6.9268257742        2.7970334033       -2.6221424395
O                -6.6697604027        2.7719543041       -1.2282545795
C                -5.5267321925        2.1704280530       -0.8004377325
C                -4.5799189102        1.5668234639       -1.6243495684
C                -3.4339647020        0.9723094525       -1.0821207917
C                -3.2284403207        0.9618596087        0.2981749405
C                -2.0280665242        0.3971164535        0.9356627622
N                -1.3941701397        0.9925619094        1.9294959072
N                -0.3467321054        0.1885453241        2.3021649061
C                -0.3606779664       -0.8661596986        1.5172535360
S                 0.8358306066       -2.1710223701        1.6138179991
C                 2.3172886911       -1.1401296135        1.8913617676
C                 2.8205032680       -0.4321917248        0.6197269630
O                 2.2504153595       -0.5481908353       -0.4596108881
N                 3.9483430950        0.3339610490        0.7626751558
C                 4.6668967471        0.6016347722        2.0055713230
C                 6.1178747805        0.1264951554        1.8808305645
C                 6.7685382905        0.6668438573        0.6233801227
C                 8.1639904872        0.7482420268        0.5202190277
C                 8.7736487864        1.2383297851       -0.6312791929
C                 7.9840612361        1.6618266258       -1.7036845087
C                 6.5972882131        1.5869903302       -1.6099354193
C                 5.9772336921        1.0893092790       -0.4560303519
C                 4.4603057008        1.0464104402       -0.4068277297
N                -1.4080576142       -0.8020335396        0.6260701572
C                -1.8435278361       -1.8143952396       -0.3572494315
C                -2.1192420465       -3.1850341281        0.2833048227
C                -2.8243356015       -4.1119714542       -0.7343982069
C                -2.3124126957       -3.9063706623       -2.1845477427
C                -0.8942246470       -3.3192990984       -2.1994236483
C                -0.8605723242       -1.9178640306       -1.5540399087
C                -4.1790880501        1.5852511432        1.1328379920
C                -5.3136993018        2.1871235915        0.6038637785
O                -6.2795382959        2.8085745470        1.3343872357
C                -6.1019546816        2.8829957208        2.7405495865
H                -7.8796105347        3.3163223693       -2.7396782044
H                -6.1457452514        3.3435409938       -3.1675245614
H                -7.0122469184        1.7831641111       -3.0359662019
H                -4.7152220302        1.5665263966       -2.6997098644
H                -2.6898854977        0.5575250856       -1.7543672727
H                 3.0775698645       -1.8197651257        2.2905747288
H                 2.0617161453       -0.4143956251        2.6670940588
H                 4.1705360029        0.1132331361        2.8431597937
H                 4.6426641669        1.6836389668        2.2015758214
H                 6.1315505123       -0.9729973443        1.8695522937
H                 6.6852797039        0.4383007783        2.7668266079
H                 8.7753520852        0.4237300851        1.3599003242
H                 9.8571286629        1.2948635973       -0.6917168375
H                 8.4475881837        2.0468218413       -2.6079388269
H                 5.9804427877        1.9158289250       -2.4440292976
H                 4.0531716370        0.5490902373       -1.2894501882
H                 4.0611241923        2.0739324316       -0.4129511914
H                -2.8057014221       -1.4409039988       -0.7148579365
H                -2.7373671337       -3.0601646695        1.1794997856
H                -1.1777460355       -3.6416601307        0.6065585787
H                -3.9075282895       -3.9415500750       -0.6989883065
H                -2.6671312710       -5.1515093478       -0.4233919433
H                -2.9825124884       -3.2212497141       -2.7225434484
H                -2.3452047689       -4.8551889526       -2.7326919605
H                -0.5103182476       -3.2602377487       -3.2245890848
H                -0.2162993944       -3.9918779893       -1.6574162439
H                 0.1541395193       -1.6748183296       -1.2271814834
H                -1.1388234153       -1.1597536197       -2.2983349906
H                -3.9928227357        1.5932597591        2.1990967618
H                -6.0729052083        1.8847733630        3.1972341209
H                -5.1839142081        3.4244870909        3.0029328238
H                -6.9675604345        3.4290736022        3.1198557372



