%chk=./calculation/no_transfer_pubchem_sampling_5_b3lyp/45888202.chk
%nprocshared=7
%mem=6GB
#p b3lyp/6-31g(d) opt SCF=XQC 

Gaussian input prepared by ASE

0 1
C                 8.0859296225       -2.3760589847       -0.3816790428
S                 6.5092373569       -2.9450755805        0.3209720994
O                 6.6614086723       -3.0564488241        1.7452089862
O                 6.0782667583       -4.1043583957       -0.4113890239
C                 5.3944414449       -1.5851177183       -0.0415748812
C                 4.6525397462       -1.6171765135       -1.2060355993
C                 3.8075030508       -0.5615707607       -1.5024918724
C                 3.7206061112        0.5221130099       -0.6320861387
C                 2.8507888570        1.7090713756       -0.9138318134
O                 3.1840006250        2.8372216914       -0.6107781116
N                 1.6854267681        1.4200345903       -1.5363077000
C                 0.6857333815        2.4316230087       -1.8140697026
C                -0.5108235819        2.2912141018       -0.9087506835
C                -0.3447715027        2.3802986739        0.4692402584
C                -1.4311434048        2.2345909648        1.3113741914
C                -2.6922883177        1.9993153945        0.7883882891
C                -2.8732762724        1.9168668007       -0.5843530113
C                -4.2303606496        1.6356550813       -1.1808287904
O                -4.2415299647        0.4867781788       -2.0065237143
C                -3.9169339403       -0.7103174079       -1.3247799231
C                -4.8716247975       -1.0324169639       -0.2020094680
C                -6.2351264773       -1.1114701141       -0.4598664959
C                -7.1266304848       -1.3783246813        0.5631065295
C                -6.6633918469       -1.5727227806        1.8540525316
C                -5.3067930763       -1.4941938693        2.1178695592
C                -4.4149102091       -1.2197913797        1.0950690934
C                -1.7750737664        2.0567584282       -1.4247565719
C                 4.4906137121        0.5446722278        0.5282486790
C                 5.3248439412       -0.5162835472        0.8307006954
H                 8.3626813188       -1.4552511825        0.1147011948
H                 8.8264320816       -3.1448996254       -0.1991409421
H                 7.9456360114       -2.2268252966       -1.4442069046
H                 4.7382143109       -2.4754158357       -1.8540866875
H                 3.2409913510       -0.5724138493       -2.4220975065
H                 1.4048780297        0.4582777986       -1.6440145753
H                 1.1766809605        3.3951585996       -1.6458670025
H                 0.3816473696        2.3600644274       -2.8626830191
H                 0.6387765348        2.5690625918        0.8735854286
H                -1.2965965481        2.3026152898        2.3806837195
H                -3.5395962248        1.8794597522        1.4482855254
H                -4.9775735584        1.5395975038       -0.3800949263
H                -4.5282734316        2.4539574207       -1.8434630232
H                -3.9645300417       -1.4859470737       -2.0955484776
H                -2.8887629011       -0.6614361685       -0.9358479628
H                -6.5884816338       -0.9521215286       -1.4682007011
H                -8.1847305153       -1.4362902281        0.3537503263
H                -7.3589220500       -1.7828379053        2.6531266810
H                -4.9415147376       -1.6415674804        3.1237439726
H                -3.3563830521       -1.1501805541        1.3045712565
H                -1.9221815839        1.9767796519       -2.4925927234
H                 4.4224261109        1.4031909149        1.1789107055
H                 5.9125194434       -0.5378632287        1.7349282734



