%chk=calculation/no_transfer_pubchem_sampling_5_b3lyp/45888202_rwf.chk
%rwf=calculation/no_transfer_pubchem_sampling_5_b3lyp/45888202_rwf.rwf
%nprocshared=14
%mem=3GB
#p b3lyp/6-31g(d) 6D 10F nosymm GFInput td=(50-50,nstate=2) SCF=XQC 

Gaussian input prepared by ASE

0 1
C                 8.0987567195       -2.5574249586       -0.5021037976
S                 6.5677447172       -2.9677655341        0.3737311676
O                 6.8510155658       -2.9002654115        1.8153544276
O                 6.0183158548       -4.1860894378       -0.2413338779
C                 5.4641076792       -1.6007289000       -0.0359428231
C                 4.6178700609       -1.7172226571       -1.1386657183
C                 3.7654395805       -0.6593938064       -1.4522649234
C                 3.7589307310        0.5036297336       -0.6695131520
C                 2.8743422088        1.6900805307       -0.9578472400
O                 3.1819941682        2.8165984006       -0.5754666536
N                 1.7365879820        1.4293850657       -1.6715286640
C                 0.7514216942        2.4744301396       -1.9607303105
C                -0.3955704181        2.5196026272       -0.9680112746
C                -0.1836189043        2.9943648591        0.3363055426
C                -1.2343137866        3.0155588805        1.2496276375
C                -2.5038867075        2.5658508883        0.8739982435
C                -2.7359072089        2.1022212273       -0.4229942117
C                -4.1220938267        1.6660859755       -0.8621288023
O                -4.1191747945        0.4972859123       -1.6777143554
C                -3.8458544464       -0.7074042549       -0.9663079874
C                -4.9871880104       -1.1609929322       -0.0743566898
C                -6.3110368778       -1.0886636163       -0.5286397364
C                -7.3596981418       -1.5420130390        0.2703705352
C                -7.0987857835       -2.0796771869        1.5337829429
C                -5.7841444846       -2.1540717447        1.9948082381
C                -4.7363505124       -1.6908637218        1.1956597078
C                -1.6698811068        2.0812330145       -1.3334252330
C                 4.6250824256        0.6032914150        0.4278059324
C                 5.4723381081       -0.4506795115        0.7569385782
H                 8.4825121102       -1.6050186728       -0.1313958655
H                 8.8028951793       -3.3632201561       -0.2795206483
H                 7.8998132122       -2.5124310279       -1.5745676672
H                 4.6223866160       -2.6273006066       -1.7295210369
H                 3.1274951097       -0.7369125047       -2.3279745554
H                 1.4173909399        0.4714361769       -1.7217468601
H                 1.3047334778        3.4161018863       -1.9567271385
H                 0.3672777540        2.3082968725       -2.9730788488
H                 0.8055356090        3.3416686345        0.6219581782
H                -1.0666464776        3.3802390498        2.2596597199
H                -3.3190866085        2.5793766105        1.5942933481
H                -4.7711151091        1.5295941416        0.0145014616
H                -4.5781985238        2.4398487919       -1.4909185974
H                -3.6606110192       -1.4520025915       -1.7496795490
H                -2.9218474809       -0.6118750258       -0.3773981647
H                -6.5100417812       -0.6648814064       -1.5091454435
H                -8.3822996392       -1.4785087661       -0.0928154944
H                -7.9164453064       -2.4348312424        2.1553993460
H                -5.5730705661       -2.5639802898        2.9790795186
H                -3.7133464252       -1.7421828587        1.5630398536
H                -1.8499541057        1.7100584723       -2.3401096886
H                 4.6152046753        1.5168863573        1.0124667222
H                 6.1209748735       -0.3967238019        1.6253549081



