%chk=calculation/no_transfer_pubchem_sampling_5_b3lyp/46062276_rwf.chk
%rwf=calculation/no_transfer_pubchem_sampling_5_b3lyp/46062276_rwf.rwf
%nprocshared=14
%mem=3GB
#p b3lyp/6-31g(d) 6D 10F nosymm GFInput td=(50-50,nstate=2) SCF=XQC 

Gaussian input prepared by ASE

0 1
C                -5.9010581973       -3.2718407698       -1.3210700292
C                -4.6266414183       -2.5170097874       -1.0226740709
C                -3.9692447641       -1.7889961679       -2.0202598875
C                -2.8140728208       -1.0705065761       -1.7238660328
C                -2.2988362152       -1.0755051855       -0.4295690109
N                -1.0836106154       -0.3378464059       -0.1694806837
C                -1.1536207630        0.8707149321        0.5344532938
O                -2.2096851611        1.2793881114        0.9922792364
N                 0.0517721011        1.5910041254        0.6916479472
C                -0.0357204509        2.8607508364        1.4486786531
C                -0.2688209134        4.1349212546        0.6060129960
C                 0.8779071674        4.4351340199       -0.3704754932
C                -1.6242569370        4.1543407268       -0.1155626225
C                 1.3476631187        1.1513142249        0.3214929334
O                 2.3573587142        1.8013673842        0.5910409859
C                 1.3057920677       -0.0990005943       -0.3778750631
C                 0.1396016905       -0.7989979137       -0.6206523760
N                 0.3705751204       -1.9445502924       -1.3134376807
C                 1.6882087151       -1.9387220983       -1.4930097560
N                 2.3136429932       -0.8602040752       -0.9572881947
C                 3.7536877807       -0.5745921197       -0.9646471109
C                 4.5583102581       -1.3955209139        0.0620591493
C                 6.0480873325       -1.0541703572       -0.0885949459
C                 4.0715774008       -1.1635660489        1.4986021563
C                -2.9218759611       -1.8043782673        0.5947634145
C                -2.3757424551       -1.8231344863        2.0000723188
C                -4.0838697913       -2.5109083679        0.2677120982
H                -6.0049565508       -4.1535867539       -0.6798109476
H                -5.9348706646       -3.6048866984       -2.3637931630
H                -6.7840334009       -2.6410570238       -1.1518476333
H                -4.3613366594       -1.7819279241       -3.0342313397
H                -2.3018345656       -0.5060288902       -2.4969582762
H                 0.9086792691        2.9522754966        1.9879043145
H                -0.8510385356        2.7394116899        2.1628853664
H                -0.2828453045        4.9410593799        1.3564559338
H                 0.9285800482        3.6820785862       -1.1658477607
H                 1.8490254567        4.4473521835        0.1326013360
H                 0.7204324635        5.4086734643       -0.8500401351
H                -2.4542513703        3.9623733468        0.5700561528
H                -1.7828016099        5.1292063607       -0.5923441555
H                -1.6674961780        3.3927723971       -0.9027985149
H                 2.2351670016       -2.7079064334       -2.0225508606
H                 3.8584801531        0.4927443144       -0.7601576229
H                 4.1235387765       -0.7718141853       -1.9770097586
H                 4.4244953808       -2.4600187158       -0.1827117578
H                 6.4059457622       -1.2362376101       -1.1093277663
H                 6.2346929615        0.0001434587        0.1506785868
H                 6.6546296207       -1.6616098909        0.5916780663
H                 3.0330720130       -1.4860298404        1.6286922658
H                 4.1267903294       -0.1019360453        1.7642621788
H                 4.6864964385       -1.7297785676        2.2072438042
H                -2.9074393213       -2.5559495969        2.6141486698
H                -2.4845232635       -0.8382019248        2.4680522486
H                -1.3098933845       -2.0795695033        2.0150924293
H                -4.5798338623       -3.0810342618        1.0508561145



