%chk=./calculation/no_transfer_pubchem_sampling_5_b3lyp/49659983.chk
%nprocshared=7
%mem=6GB
#p b3lyp/6-31g(d) opt SCF=XQC 

Gaussian input prepared by ASE

0 1
C                -2.7196711098        1.1995381538        1.8392993660
C                -2.0473860929        1.6606529366        0.5438055419
C                -2.6513572333        0.9674851271       -0.6467754818
C                -3.5813621341        1.6410601275       -1.4259210133
C                -4.2053260377        1.0323666510       -2.4996834048
C                -3.8990033572       -0.2805766182       -2.8087301660
C                -2.9739831295       -0.9731937151       -2.0511167016
C                -2.3485626081       -0.3621916382       -0.9684951368
N                -1.3924997681       -1.0527696262       -0.2049163590
C                -1.1945854701       -2.3883050017       -0.1422571971
O                -1.8710886504       -3.2438897891       -0.6658271461
C                 0.0339187077       -2.7536375529        0.7111496961
O                 1.2398338864       -2.2850172467        0.1239575143
C                 1.7251471095       -1.1061134007        0.5054671703
N                 1.0546097545       -0.3441533629        1.3394444213
C                 1.6443992784        0.7960608623        1.7692508184
C                 0.8868791524        1.5892903668        2.7828063862
N                 2.8031132273        1.2396412111        1.3826618806
C                 3.4961742472        0.5120979951        0.4772799252
C                 4.7448040561        0.9691293803        0.0179039223
C                 5.4557337085        0.2199080817       -0.8811953674
C                 4.9597816084       -1.0031667881       -1.3557280381
C                 3.7468083919       -1.4744485803       -0.9280631989
C                 2.9990417102       -0.7224636156       -0.0093007219
H                -3.7906759903        1.3817782886        1.7858934888
H                -2.3202713731        1.7440952881        2.6917180519
H                -2.5660108842        0.1351942295        2.0010065671
H                -2.1899618009        2.7377425104        0.4355868406
H                -0.9713972833        1.4794532949        0.5983954622
H                -3.8216889157        2.6658841592       -1.1802053299
H                -4.9265754266        1.5797513248       -3.0876194216
H                -4.3777035145       -0.7704953450       -3.6429976211
H                -2.7384749958       -1.9967773745       -2.2880606533
H                -0.7881250487       -0.4848772042        0.3831033420
H                -0.0716453841       -2.3478475917        1.7230590146
H                 0.1170522377       -3.8422325722        0.7395129143
H                 1.5613392186        1.8877088908        3.5810025220
H                 0.4947502213        2.4964683994        2.3264053019
H                 0.0677207613        1.0000499871        3.1832140418
H                 5.1119982364        1.9107300230        0.3935610943
H                 6.4149797453        0.5699543977       -1.2337866964
H                 5.5431939855       -1.5726976661       -2.0634957874
H                 3.3460769640       -2.4111859974       -1.2832688420



