%chk=./calculation/no_transfer_pubchem_sampling_5_b3lyp/49716033.chk
%nprocshared=7
%mem=6GB
#p b3lyp/6-31g(d) opt SCF=XQC 

Gaussian input prepared by ASE

0 1
C                -4.3008758259       -2.0693667405       -1.2797721215
N                -4.1166475747       -1.2642674840       -0.1046780283
C                -5.0098185364       -0.3438278530        0.3470105423
C                -4.5535531675        0.1799274064        1.5252962700
C                -3.3331537894       -0.4576386360        1.8088186211
C                -3.0853636104       -1.3473320692        0.7905820952
C                -1.8911543126       -2.2243250186        0.6163007127
N                -0.6809388171       -1.4435006045        0.3766481764
C                -0.6021456205       -0.6755865662       -0.8550268069
C                -0.3422036618        0.7794469077       -0.6194848723
C                -0.9451583313        1.6102511925        0.2734706788
C                -0.4235938991        2.9228302032        0.2412853884
C                 0.5574556866        3.0752248070       -0.6815389961
S                 0.8706729000        1.6182963225       -1.5367676313
C                 0.2455116712       -1.3744329612        1.3549385505
O                 0.1442413444       -1.9426670198        2.4235387030
C                 1.4606193546       -0.5280037474        1.0551707424
C                 1.8032193950        0.5073984692        1.8441578829
C                 2.9622600431        1.3390628703        1.5513426230
O                 3.2648819629        2.3325303644        2.1881004531
C                 3.7302053957        0.8625260889        0.3846831977
C                 4.8912498615        1.5221172084       -0.0246073153
C                 5.6047599258        1.0763406322       -1.1134933438
C                 5.1697184753       -0.0429401401       -1.8179217235
C                 4.0267146743       -0.7097826325       -1.4350783495
C                 3.3021942702       -0.2583418972       -0.3322283362
O                 2.1708679206       -0.9413439860       -0.0090449967
H                -4.3524684980       -3.1304283127       -1.0224626933
H                -3.4901004952       -1.9229564344       -1.9985407074
H                -5.2366412716       -1.7845023848       -1.7576567873
H                -5.9061377211       -0.1298030179       -0.2014919898
H                -5.0370920179        0.9299003466        2.1186159033
H                -2.7060218833       -0.3031659164        2.6651078316
H                -2.0253582563       -2.9281579403       -0.2097554962
H                -1.7036448422       -2.7839956126        1.5371416886
H                 0.1775046231       -1.0838347718       -1.5089968727
H                -1.5639168857       -0.7908991286       -1.3629588124
H                -1.7299787775        1.2913911040        0.9360692720
H                -0.7655996135        3.7152845231        0.8814000885
H                 1.1246148354        3.9519566308       -0.9211494392
H                 1.1884211284        0.7606066475        2.6920478394
H                 5.2011436913        2.3857610725        0.5441341703
H                 6.5013453632        1.5907480864       -1.4235906025
H                 5.7299466191       -0.3924649417       -2.6719084302
H                 3.6740192673       -1.5780340666       -1.9692100787



