%chk=calculation/no_transfer_pubchem_sampling_5_b3lyp/53173244_rwf.chk
%rwf=calculation/no_transfer_pubchem_sampling_5_b3lyp/53173244_rwf.rwf
%nprocshared=14
%mem=3GB
#p b3lyp/6-31g(d) 6D 10F nosymm GFInput td=(50-50,nstate=2) SCF=XQC 

Gaussian input prepared by ASE

0 1
C                 6.4326452472        0.7069100564        1.0860285143
C                 4.9725565757        0.5435987417        0.7429857397
C                 3.9869613741        0.8915925349        1.6757801176
C                 2.6329856019        0.7538229945        1.3924110203
C                 2.2397830711        0.2549299451        0.1441082137
C                 0.8204267691        0.1101573971       -0.1538342810
N                -0.2018852445        0.3916021038        0.6116731820
C                -1.2740035058        0.0584264995       -0.1820988468
C                -2.6651791252        0.2068220708        0.2635052526
C                -2.9467103212        0.7182020800        1.5767863895
C                -4.2352843625        0.8636635999        2.0098805237
C                -5.3026161519        0.5032208157        1.1465772584
N                -6.6167746401        0.5376940315        1.2989114113
N                -7.1686319344        0.0692111940        0.1356862964
C                -6.2098337895       -0.2460040668       -0.7125056571
C                -6.3893694811       -0.7902408260       -2.0865635703
N                -4.9855489479        0.0079574100       -0.1275024042
C                -3.6963193025       -0.1410015916       -0.5695163776
N                -0.9518858424       -0.4035879653       -1.3719445317
O                 0.4492738202       -0.3713043946       -1.3589287676
C                 3.2182910112       -0.0969698906       -0.7982618934
C                 4.5776621045        0.0398694241       -0.5175224889
C                 5.6058760540       -0.3479175865       -1.5535295022
H                 6.9372873899        1.3883171793        0.3890701898
H                 6.5596994294        1.1068571453        2.0960220248
H                 6.9690347861       -0.2492601905        1.0335403550
H                 4.2909768854        1.2789018122        2.6449452727
H                 1.8776686743        1.0262258097        2.1217868154
H                -2.1087295967        0.9838315869        2.2104683536
H                -4.4764829259        1.2465972274        2.9947936466
H                -5.9263165767       -1.7787966163       -2.2002898978
H                -7.4597732399       -0.8866983233       -2.2789178777
H                -5.9583031368       -0.1293268642       -2.8494323841
H                -3.5517060162       -0.5315459509       -1.5690110217
H                 2.9097212349       -0.4833813636       -1.7649212304
H                 6.2744600299       -1.1363210215       -1.1849413674
H                 6.2426953574        0.5021413982       -1.8297587824
H                 5.1273497248       -0.7160934067       -2.4654806950



