%chk=./calculation/no_transfer_pubchem_sampling_5_b3lyp/53173244.chk
%nprocshared=7
%mem=6GB
#p b3lyp/6-31g(d) opt SCF=XQC 

Gaussian input prepared by ASE

0 1
C                 6.3656523328        0.7075625161        1.0909932772
C                 4.9205979921        0.5425062082        0.7427739091
C                 3.9358539242        0.8854823036        1.6627822112
C                 2.5960764983        0.7433142367        1.3675359987
C                 2.2219175160        0.2456093355        0.1213068967
C                 0.8236856215        0.0933865840       -0.1966081017
N                -0.1928354549        0.3759030538        0.5713366161
C                -1.2670948025        0.0518329517       -0.1992017735
C                -2.6367677528        0.2012596321        0.2479623112
C                -2.8988345860        0.7099953557        1.5535611526
C                -4.1755044290        0.8589151043        1.9948572970
C                -5.2354994517        0.5014000480        1.1386388638
N                -6.5383989821        0.5364627391        1.2919222167
N                -7.0965107947        0.0836440805        0.1688130890
C                -6.1667364425       -0.2364088065       -0.6902426551
C                -6.3697342294       -0.7764837315       -2.0525638577
N                -4.9353676957        0.0052187369       -0.1369359843
C                -3.6673988752       -0.1443098775       -0.5793518151
N                -0.9262193385       -0.4063068164       -1.3801075828
O                 0.4309292381       -0.3839092413       -1.3900675119
C                 3.2010962904       -0.1011882466       -0.8081375700
C                 4.5452405994        0.0417879113       -0.5110527339
C                 5.5827050588       -0.3359896025       -1.5220862889
H                 6.8525651361        1.3862588918        0.3914475165
H                 6.4784914033        1.1052377679        2.0959168673
H                 6.8842665312       -0.2489838483        1.0349973828
H                 4.2288882874        1.2711906235        2.6284258752
H                 1.8311959414        1.0085676673        2.0792210886
H                -2.0524934897        0.9684894535        2.1686959437
H                -4.4146871400        1.2393344771        2.9732791234
H                -5.9021684127       -1.7563979833       -2.1495495021
H                -7.4357223451       -0.8688192120       -2.2346378181
H                -5.9341041429       -0.1103247676       -2.7973556118
H                -3.5088578205       -0.5323127403       -1.5730715381
H                 2.8977704057       -0.4858748536       -1.7706779464
H                 6.2363305960       -1.1134471689       -1.1282007971
H                 6.2046103578        0.5227992523       -1.7721419534
H                 5.1170634553       -0.7032990347       -2.4324775947



