%chk=./calculation/no_transfer_pubchem_sampling_5_b3lyp/53958798.chk
%nprocshared=7
%mem=6GB
#p b3lyp/6-31g(d) opt SCF=XQC 

Gaussian input prepared by ASE

0 1
C                 8.5176182544       -0.4707284766       -0.1094540846
O                 7.1094737123       -0.3302448578       -0.2129112369
C                 6.5232201128       -1.0481219450       -1.1883305895
O                 7.1444861204       -1.7631095890       -1.9364167538
C                 5.0562750235       -0.8595102239       -1.2373088553
C                 4.3343904197       -1.5543150396       -2.2150170217
C                 2.9715833551       -1.4285829532       -2.2652986391
C                 2.2963401601       -0.5989556388       -1.3576070262
N                 0.9473871170       -0.5354318741       -1.4407607260
C                 0.2771698498        0.1439332397       -0.5594326505
C                -1.1530919482        0.1674222967       -0.6638785407
C                -2.0553992752        0.8173326191        0.1559816778
N                -3.3217462197        0.6059373748       -0.2676766271
C                -4.5161184019        1.0934275290        0.3636459047
C                -5.3623753890       -0.0272946107        0.9207480848
C                -4.7611501449       -1.1508914061        1.4776119096
C                -5.5295613799       -2.1765855411        1.9898295571
C                -6.9208732612       -2.0833780580        1.9540814478
C                -7.7160135480       -3.1289723736        2.4780747407
N                -8.3641079517       -3.9734863376        2.9029248213
C                -7.5302333891       -0.9567152218        1.4019067484
C                -6.7494886203        0.0591368614        0.8879113534
C                -3.2919536054       -0.2050304679       -1.3787372404
C                -4.3342861663       -0.7028413893       -2.1481286613
C                -4.0034928095       -1.5029435018       -3.2223386662
C                -2.6728739349       -1.7999633530       -3.5214294698
C                -1.6351455602       -1.3097956066       -2.7570144544
C                -1.9419916455       -0.5012970843       -1.6671116198
C                 0.9349604683        0.9088573243        0.5269748573
O                 0.3211453576        1.4885402995        1.4097233008
N                 2.3125548055        0.9631755729        0.4622578066
C                 3.0085261907        1.8823835183        1.3664347192
C                 3.0492163580        1.3320673121        2.7873662699
C                 2.3999360084        3.2944614067        1.3306073215
N                 3.3858322191        4.2278537541        1.8489976982
C                 3.0256297900        0.1395842963       -0.3912220838
C                 4.4086513078       -0.0260822923       -0.3362437478
H                 8.7820404991       -1.5130960527        0.0802657068
H                 8.8265124428        0.1596507870        0.7205512280
H                 8.9999962554       -0.1510056757       -1.0355822859
H                 4.8729781729       -2.1879029994       -2.9019083475
H                 2.3783641970       -1.9645185134       -2.9885801439
H                -1.8498575972        1.4206548306        1.0181970389
H                -4.2203505792        1.7657980083        1.1763840513
H                -5.1036728419        1.6723315062       -0.3589993769
H                -3.6841067438       -1.2241904092        1.5065082575
H                -5.0630549182       -3.0505888840        2.4189373409
H                -8.6076519423       -0.8895954273        1.3758391657
H                -7.2221021317        0.9297238201        0.4562159157
H                -5.3646666739       -0.4794620180       -1.9145983628
H                -4.7885551172       -1.9087310550       -3.8429599760
H                -2.4584779570       -2.4304017427       -4.3716891963
H                -0.6061155486       -1.5359536687       -2.9799519713
H                 4.0280966407        1.9920386550        0.9908170050
H                 2.0374705798        1.1841055955        3.1542007390
H                 3.5558072031        2.0511608450        3.4240590639
H                 3.5814286884        0.3834061399        2.8161918290
H                 2.0809981312        3.5179483375        0.2972807286
H                 1.5212379718        3.3391365574        1.9733385744
H                 4.1595630462        4.3314218321        1.2000691434
H                 2.9690640205        5.1416506604        1.9816177514
H                 5.0105618228        0.4565833084        0.4150335970



