%chk=calculation/no_transfer_pubchem_sampling_5_b3lyp/53958798_rwf.chk
%rwf=calculation/no_transfer_pubchem_sampling_5_b3lyp/53958798_rwf.rwf
%nprocshared=14
%mem=3GB
#p b3lyp/6-31g(d) 6D 10F nosymm GFInput td=(50-50,nstate=2) SCF=XQC 

Gaussian input prepared by ASE

0 1
C                 8.6032474132       -0.3305814576       -0.0658186198
O                 7.1764056532       -0.2215097261       -0.1813675958
C                 6.6247829903       -0.9278257544       -1.1976973883
O                 7.2817199689       -1.6035356705       -1.9655077923
C                 5.1443156347       -0.7806580292       -1.2628698917
C                 4.4600905449       -1.4771181592       -2.2750865142
C                 3.0856730492       -1.3813725432       -2.3502673482
C                 2.3568720071       -0.5920058887       -1.4364867339
N                 0.9904449998       -0.5688913832       -1.5555162951
C                 0.2744755717        0.1052606184       -0.6917113543
C                -1.1695516115        0.0971199200       -0.8272964997
C                -2.0968108705        0.7294614943       -0.0100529356
N                -3.3691733501        0.4965397997       -0.4585242655
C                -4.5816117350        1.0014766666        0.1584014726
C                -5.4050810840       -0.0460832446        0.8945562365
C                -4.8016489635       -1.1451786329        1.5170651723
C                -5.5662243574       -2.0660772587        2.2261487553
C                -6.9571069545       -1.8963337761        2.3251214238
C                -7.7499158134       -2.8423981159        3.0550674523
N                -8.3945797639       -3.6079366512        3.6480907758
C                -7.5690601337       -0.7970150288        1.7013902191
C                -6.7931499994        0.1132273627        0.9910648080
C                -3.3082553385       -0.3066647725       -1.5959412132
C                -4.3473839881       -0.7965140704       -2.3905520931
C                -3.9977186695       -1.5756477613       -3.4889527851
C                -2.6494900368       -1.8561367194       -3.7759753755
C                -1.6202945832       -1.3683284517       -2.9765744150
C                -1.9418648787       -0.5774543342       -1.8614939737
C                 0.8991921291        0.8862028698        0.4235564438
O                 0.2368005522        1.4849312597        1.2737645033
N                 2.2873179933        0.9296919652        0.4368938238
C                 2.9433628982        1.7860313118        1.4683840674
C                 2.8976492377        1.1411507472        2.8558259269
C                 2.4232959665        3.2423940005        1.4583272825
N                 3.4486243960        4.0944184540        2.0724908009
C                 3.0512785701        0.1359606862       -0.4320538565
C                 4.4476401295        0.0144655203       -0.3510383660
H                 8.8966397131       -1.3703971679        0.1009753399
H                 8.8750038101        0.2872315101        0.7906776730
H                 9.0911583401        0.0334688212       -0.9739159508
H                 5.0283472666       -2.0838284283       -2.9709670387
H                 2.5189667677       -1.9144187518       -3.1067387138
H                -1.9172074785        1.3351181492        0.8630028663
H                -4.2793675999        1.7914355674        0.8557941702
H                -5.1987070170        1.4815004732       -0.6107793794
H                -3.7280154416       -1.2862836341        1.4393858504
H                -5.0945210400       -2.9184455268        2.7041929000
H                -8.6443720172       -0.6688385987        1.7712221769
H                -7.2745976608        0.9584088560        0.5046776459
H                -5.3876705211       -0.5893815892       -2.1581869480
H                -4.7786199304       -1.9754512305       -4.1298112415
H                -2.4077258829       -2.4694066629       -4.6398338575
H                -0.5834266502       -1.5864228523       -3.1967154680
H                 3.9846097094        1.8632039922        1.1568646953
H                 1.8633457458        1.0000585508        3.1789208471
H                 3.4057943692        1.8026891590        3.5633102504
H                 3.4045671645        0.1699655055        2.8562278049
H                 2.1650303995        3.5237047541        0.4236676835
H                 1.5106572103        3.3161355962        2.0488907779
H                 4.1790374846        4.3158935014        1.3975231589
H                 3.0399363095        4.9824489065        2.3535609038
H                 5.0168703758        0.5085458533        0.4226870016



