%chk=./calculation/no_transfer_pubchem_sampling_5_b3lyp/54760103.chk
%nprocshared=7
%mem=6GB
#p b3lyp/6-31g(d) opt SCF=XQC 

Gaussian input prepared by ASE

0 1
N                -6.6511677810        3.6619682057        3.6699268068
C                -6.2616237000        2.8471388473        2.9651643268
C                -5.7372535112        1.8705411842        2.0767483285
C                -4.5139179958        2.1020041747        1.4428113540
C                -4.0340261459        1.1393338780        0.5762069192
C                -4.7748471318       -0.0234695365        0.3651195927
C                -4.3328834258       -1.0809386983       -0.5447684752
C                -5.2229227886       -1.7216344527       -1.3955734117
C                -4.7759033728       -2.7272727142       -2.2412870281
C                -3.4358085376       -3.0594090400       -2.2027918802
N                -2.5678065143       -2.4728997014       -1.3922764343
C                -2.9888358290       -1.5181098312       -0.5833865234
O                -2.1082233757       -0.9537663901        0.2573852746
C                -0.7935708415       -1.4800158862        0.2437010225
C                 0.1167982121       -1.0154447537       -0.9066779428
C                 1.1753368359       -0.5904124184        0.1339281469
N                 1.7291096449        0.7169564659       -0.0096419366
C                 3.0630213170        0.9791608310        0.0011139288
C                 3.5014976141        2.3291327449       -0.1268586047
C                 4.8359405224        2.5881293899       -0.1214968653
C                 5.7563665285        1.5205418828        0.0096496243
C                 7.1496485018        1.6999194611        0.0245715704
C                 7.9862759615        0.6239355874        0.1546580455
C                 7.4581504312       -0.6692502707        0.2743726312
C                 6.1056711464       -0.8765861948        0.2634272859
C                 5.2196698014        0.2110609538        0.1309968884
N                 3.8939422669       -0.0311830633        0.1248243561
C                 0.1274683421       -0.7858117724        1.2530166300
C                -5.9827685931       -0.1460575869        1.0632066953
N                -6.4514670000        0.7627666264        1.8859729554
H                -3.9702689573        3.0159600372        1.6280515892
H                -3.1006911375        1.2875781467        0.0559756475
H                -6.2590678581       -1.4157817262       -1.4096383425
H                -5.4525980443       -3.2284179319       -2.9138949376
H                -3.0189798752       -3.8251145880       -2.8424489623
H                -0.8364193599       -2.5673236222        0.3406396320
H                 0.4070465068       -1.7771674063       -1.6230953785
H                -0.3071958384       -0.1648781980       -1.4374985100
H                 2.0179053633       -1.2776992055        0.2042450789
H                 1.0926296591        1.4942203070       -0.0844149598
H                 2.7705020250        3.1186599881       -0.2250085406
H                 5.2089918257        3.5990741994       -0.2157396340
H                 7.5469009306        2.7015147819       -0.0683709015
H                 9.0571635892        0.7645036277        0.1658686185
H                 8.1330268077       -1.5069854795        0.3761416747
H                 5.6851564420       -1.8659668528        0.3546462958
H                 0.4334920162       -1.3737293922        2.1131639297
H                -0.3008159695        0.1553663913        1.5920637732
H                -6.5926507077       -1.0341409986        0.9595056465



