%chk=./calculation/no_transfer_pubchem_sampling_5_b3lyp/5704968.chk
%nprocshared=7
%mem=6GB
#p b3lyp/6-31g(d) opt SCF=XQC 

Gaussian input prepared by ASE

0 1
O                -2.4049444604        4.4207177917       -0.2219591717
N                -2.3319927643        3.3563461405       -0.7958533456
O                -3.1436911877        2.9313410700       -1.5874183261
C                -1.1497739409        2.5627535498       -0.5585130414
C                 0.0592764237        3.2376043055       -0.5470069360
C                 1.2498651290        2.5335807673       -0.4822026491
N                 2.4636721453        3.2980669185       -0.6435262760
O                 3.3132342576        2.8530052883       -1.3825965651
O                 2.5260250521        4.3606733787       -0.0651352591
C                 1.2553004114        1.1298122273       -0.3845936347
C                 2.4580179885        0.3417376275       -0.1946596630
C                 3.5012003132        0.7197318084        0.5588814963
C                 4.6900878134       -0.0652826674        0.7922260775
C                 5.7203141243        0.4418046660        1.6075379400
C                 6.8829709953       -0.2548043094        1.8496863624
C                 7.1028693764       -1.5156941502        1.2956505844
C                 6.1048424462       -2.0220944013        0.4995077572
C                 4.9242242307       -1.3222840093        0.2484051415
O                 4.1220682382       -2.0765214608       -0.5662189547
C                 4.8400570729       -3.2627238534       -0.8368331885
O                 6.0704965514       -3.2251555491       -0.1542711678
C                 0.0211547560        0.4826870827       -0.4015537981
C                -1.1954781108        1.1596150501       -0.4626061641
C                -2.4266545218        0.4011654537       -0.3502156754
C                -3.5061964041        0.8051390390        0.3355759346
C                -4.7263183520        0.0495405575        0.4922017428
C                -5.7937468412        0.5823427231        1.2405007881
C                -6.9861027105       -0.0855106273        1.4076302530
C                -7.2009049865       -1.3411937482        0.8399393906
C                -6.1668035016       -1.8725068100        0.1087192125
C                -4.9558804016       -1.2018990971       -0.0661976555
O                -4.1220511261       -1.9762253233       -0.8284910638
C                -4.8500340193       -3.1448311268       -1.1450589735
O                -6.1201847656       -3.0766684205       -0.5422687835
H                 0.0750181249        4.3153516538       -0.6303757856
H                 2.4503507595       -0.6417228752       -0.6393759664
H                 3.4869762832        1.6731244020        1.0725251083
H                 5.5845085473        1.4176148007        2.0478662444
H                 7.6435283745        0.1795062389        2.4792114762
H                 8.0071628446       -2.0710380890        1.4759206713
H                 4.2536521976       -4.1318687910       -0.4980632672
H                 5.0178541215       -3.3448621263       -1.9213063841
H                 0.0053219327       -0.5935213403       -0.3154472971
H                -2.4146330456       -0.5825516513       -0.7942680556
H                -3.5014996762        1.7584135780        0.8496221460
H                -5.6625421445        1.5549710923        1.6891851405
H                -7.7744249100        0.3677928035        1.9876640597
H                -8.1281126431       -1.8741758265        0.9618689938
H                -4.3077665965       -4.0276928646       -0.7701610030
H                -4.9603164005       -3.2236118965       -2.2387104692



