%chk=calculation/no_transfer_pubchem_sampling_5_b3lyp/5704968_rwf.chk
%rwf=calculation/no_transfer_pubchem_sampling_5_b3lyp/5704968_rwf.rwf
%nprocshared=14
%mem=3GB
#p b3lyp/6-31g(d) 6D 10F nosymm GFInput td=(50-50,nstate=2) SCF=XQC 

Gaussian input prepared by ASE

0 1
O                -2.3399736319        4.7668177681       -0.1229855755
N                -2.3325846512        3.6754191248       -0.6941027800
O                -3.2093894378        3.2753866782       -1.4564411266
C                -1.1543568275        2.8178822085       -0.4833329553
C                 0.0589528597        3.4923656158       -0.4451102485
C                 1.2557051718        2.7888984701       -0.4063972625
N                 2.4651591889        3.6178446226       -0.5408594694
O                 3.3793791148        3.1960410374       -1.2453287582
O                 2.4618812012        4.7095427786        0.0297204071
C                 1.2815306779        1.3755638902       -0.3356972685
C                 2.4400699796        0.4941604081       -0.1659199497
C                 3.6127506995        0.7949179547        0.4329699104
C                 4.7277301640       -0.1112486384        0.6732534659
C                 5.8812822407        0.3592791776        1.3565770602
C                 6.9771498706       -0.4520542730        1.6202915008
C                 7.0014217639       -1.8004900001        1.2176597824
C                 5.8848045958       -2.2612537568        0.5488793676
C                 4.7848461571       -1.4512826459        0.2842112693
O                 3.8227417271       -2.1876402203       -0.3683948471
C                 4.4361586629       -3.4498808868       -0.6692633850
O                 5.6504202385       -3.5322243589        0.0757095574
C                 0.0231972035        0.7490228308       -0.3586245844
C                -1.2185758114        1.4056589075       -0.4154448284
C                -2.4066105156        0.5527479244       -0.3204903352
C                -3.6071059554        0.8824229056        0.2033579339
C                -4.7570122301        0.0040712357        0.3714698942
C                -5.9395660606        0.5030288967        0.9810664496
C                -7.0695356368       -0.2810198527        1.1738710212
C                -7.1014240525       -1.6285520983        0.7687533815
C                -5.9563964571       -2.1168319901        0.1713429054
C                -4.8223199172       -1.3342448234       -0.0221571105
O                -3.8392304900       -2.0942361674       -0.6135228773
C                -4.4633244688       -3.3409620093       -0.9544523531
O                -5.7238281892       -3.3933153021       -0.2876814463
H                 0.0733796599        4.5735971555       -0.4892251663
H                 2.2663717590       -0.5286702258       -0.4844306081
H                 3.7825126041        1.8015427199        0.8038516873
H                 5.8961250168        1.3980482721        1.6740108948
H                 7.8344342191       -0.0398594058        2.1433735951
H                 7.8474771923       -2.4485520265        1.4172895733
H                 3.7645438577       -4.2581937929       -0.3674879848
H                 4.6547619843       -3.4980383489       -1.7452474955
H                 0.0074796092       -0.3339956434       -0.2748626005
H                -2.2381436949       -0.4741238443       -0.6286413361
H                -3.7751424332        1.8930304201        0.5641017428
H                -5.9489285411        1.5419307883        1.2982757812
H                -7.9478080828        0.1522865196        1.6422074145
H                -7.9740894481       -2.2555401803        0.9136237020
H                -3.8321992389       -4.1655930092       -0.6121686886
H                -4.6147246471       -3.3837058102       -2.0421592565



