%chk=calculation/no_transfer_pubchem_sampling_5_b3lyp/57319177_rwf.chk
%rwf=calculation/no_transfer_pubchem_sampling_5_b3lyp/57319177_rwf.rwf
%nprocshared=14
%mem=3GB
#p b3lyp/6-31g(d) 6D 10F nosymm GFInput td=(50-50,nstate=2) SCF=XQC 

Gaussian input prepared by ASE

0 1
C                 0.3721219761        0.1863746184       -2.9329238390
C                 0.1750701353        0.3613978158       -1.4185947166
C                 1.4556244016        0.3011263133       -0.5763643317
C                 1.3797690803        0.2415095417        0.8237655738
C                 2.5246837463        0.2679247030        1.6142958143
C                 3.8038837640        0.3565342766        1.0394603838
C                 5.0271677719        0.3827843032        1.8804349202
C                 5.0476160935        1.0741649935        3.1036743954
C                 6.1957767629        1.0995597228        3.8938674636
C                 7.3504624705        0.4342299156        3.4779501988
C                 7.3455958666       -0.2570146662        2.2650238090
C                 6.1967786190       -0.2828208970        1.4758151188
C                 3.8783549233        0.4138177177       -0.3597337912
C                 2.7294980133        0.3875067255       -1.1503075777
N                -0.9113978219       -0.5111334131       -0.8968018977
C                -2.0569593247        0.0043754387       -0.3380314221
O                -3.0686442765       -0.6904287593       -0.1793521838
C                -2.0824781252        1.4822399300        0.1203337577
C                -2.5838945346        2.4033753439       -0.9971184014
C                -3.5224881155        1.9895539285       -1.9517811725
C                -3.9691056947        2.8721415097       -2.9379285286
C                -3.4858642737        4.1796114466       -2.9860339716
C                -2.5498703551        4.6015461462       -2.0394866491
C                -2.1037951937        3.7199126077       -1.0558945814
C                -2.8811886191        1.6299827007        1.4163224950
C                -2.1974041374        1.8925779398        2.6092984357
C                -2.8867713883        2.0422801058        3.8146461853
C                -4.2762877142        1.9326297740        3.8392672530
C                -4.9677870388        1.6740260520        2.6530209447
C                -4.2775035771        1.5246923995        1.4514976639
C                -0.9117570564       -1.9877514188       -1.1330828967
C                 0.4436468087       -2.6675250491       -0.8907122571
C                 0.3777077191       -4.2064736805       -0.8955135194
C                -0.4683687848       -4.8279649840        0.2200745619
N                -0.2976497470       -6.2874823360        0.2220866745
C                -1.4969526037       -2.3435962117       -2.5285579273
N                -2.8490519952       -2.2177589045       -2.5937081088
O                -0.8085816108       -2.7250266673       -3.4681151155
H                 1.0342774575        0.9722157705       -3.3090671553
H                 0.7813147191       -0.7861638154       -3.2108121945
H                -0.5917780263        0.3012132741       -3.4363428021
H                -0.2080280600        1.3777337848       -1.3157242475
H                 0.4117340861        0.1368694841        1.3053358609
H                 2.4274290540        0.1872288036        2.6934377605
H                 4.1630290997        1.6174711490        3.4245760457
H                 6.1904933094        1.6474895898        4.8325382325
H                 8.2456072379        0.4537065663        4.0936199911
H                 8.2358746324       -0.7863395625        1.9356459831
H                 6.1957337588       -0.8472591248        0.5474606306
H                 4.8485156811        0.5021418242       -0.8406981241
H                 2.8424702543        0.4371422184       -2.2279176711
H                -1.0653428706        1.7971412684        0.3647102225
H                -3.9042792200        0.9739134420       -1.9253396848
H                -4.6962493316        2.5328294829       -3.6710372367
H                -3.8332692732        4.8641319492       -3.7550251706
H                -2.1645246632        5.6173563766       -2.0672400717
H                -1.3790337840        4.0575683584       -0.3183144545
H                -1.1130101728        1.9839724306        2.5973127183
H                -2.3366052812        2.2474512175        4.7292846572
H                -4.8184189883        2.0509935340        4.7737089630
H                -6.0513376919        1.5892528393        2.6631123286
H                -4.8243776923        1.3260541047        0.5367680734
H                -1.6231079290       -2.3620954618       -0.3948925795
H                 1.1656587127       -2.3556341277       -1.6496347564
H                 0.8292779738       -2.3301625279        0.0765808656
H                 0.0188740897       -4.5529155988       -1.8722432636
H                 1.3984686193       -4.5916681069       -0.7859285546
H                -0.1214550381       -4.4524939240        1.1923543466
H                -1.5230373718       -4.5125243372        0.1202654447
H                -0.6605937581       -6.6679032963       -0.6520280716
H                -0.8670362604       -6.6983985754        0.9607542692
H                -3.3551367824       -1.8137371576       -1.8108874906
H                -3.3020916550       -2.3674828344       -3.4846126241



