%chk=calculation/no_transfer_pubchem_sampling_5_b3lyp/57379315_rwf.chk
%rwf=calculation/no_transfer_pubchem_sampling_5_b3lyp/57379315_rwf.rwf
%nprocshared=14
%mem=3GB
#p b3lyp/6-31g(d) 6D 10F nosymm GFInput td=(50-50,nstate=2) SCF=XQC 

Gaussian input prepared by ASE

0 1
C                -2.8086040137       -0.0067171659        2.1363887044
C                -1.5797880838        0.2206589431        1.2445258199
C                -1.8079450095        0.0000848665       -0.2646860713
C                -2.7141799371        1.0640302854       -0.9132586641
O                -4.0603178258        1.0597268588       -0.4458847781
C                -0.4702661301       -0.1409185964       -1.0874435301
C                 0.4580036396        1.0577984646       -0.9889311198
C                 0.2801064163        2.1833456555       -1.7969514936
C                 1.0896213578        3.3133007357       -1.6758870725
C                 2.1173947043        3.3084484871       -0.7351489125
C                 2.3454067545        2.1830390201        0.0546705957
C                 1.5253826473        1.0468765578       -0.0635078921
N                 1.7651757234       -0.1125271855        0.6967633519
C                 2.6864438459       -0.0614081907        1.8176920349
C                 1.3577665425       -1.3581850138        0.1851704739
C                 2.0067649204       -2.5524458947        0.5467936014
C                 1.5918168276       -3.7729603010        0.0171527616
C                 0.5410213319       -3.8268413141       -0.8972980254
C                -0.0953777403       -2.6406670684       -1.2627189677
C                 0.2816457307       -1.4080967040       -0.7266276862
H                -2.5400597477        0.1155800004        3.1925535335
H                -3.1971715752       -1.0267568435        2.0149618636
H                -3.6160093149        0.6894878797        1.9004938796
H                -1.1971203270        1.2385052282        1.3994672458
H                -0.7868986703       -0.4589349317        1.5754262086
H                -2.3147864522       -0.9722672060       -0.3913689716
H                -2.6962371062        0.9381259217       -2.0098155030
H                -2.3383172851        2.0686861438       -0.6969908828
H                -4.4123546666        0.1655263329       -0.5785867547
H                -0.7850401297       -0.2325640582       -2.1366221726
H                -0.5196955952        2.1741797718       -2.5336548149
H                 0.9202125402        4.1794023482       -2.3087697546
H                 2.7663308200        4.1733648806       -0.6257823453
H                 3.1848654846        2.1835320079        0.7404096679
H                 3.7421367088       -0.1627548436        1.5213784907
H                 2.4446475821       -0.8625982905        2.5198714081
H                 2.5627693552        0.8883607735        2.3430285405
H                 2.8553761968       -2.5325882104        1.2209847908
H                 2.1107476726       -4.6816494288        0.3107310366
H                 0.2232617252       -4.7745748110       -1.3219462625
H                -0.9167289168       -2.6666051051       -1.9765863340



