%chk=./calculation/no_transfer_pubchem_sampling_5_b3lyp/57573524.chk
%nprocshared=7
%mem=6GB
#p b3lyp/6-31g(d) opt SCF=XQC 

Gaussian input prepared by ASE

0 1
C                14.3508068925       -0.9298178117       -2.4342327474
C                12.9365380276       -1.2696940158       -1.9790793881
C                12.7118602265       -1.0298115128       -0.4853440273
C                12.6288021853        0.4591047324       -0.1360713774
O                11.5670010196        1.1178855751       -0.7941114594
C                10.2832008319        0.9128755837       -0.3835337196
C                 9.8934746119        0.2288410841        0.7618413945
C                 8.5530394476        0.1065374927        1.0876079751
C                 7.5828900592        0.6573799069        0.2655539879
O                 6.2299620004        0.6166796413        0.5412078754
C                 5.6520513394       -0.4801936338        1.1020746981
O                 6.2483102807       -1.5077565516        1.3445399676
C                 4.2232712423       -0.2673192836        1.3524680058
C                 3.4713016871       -1.3240648020        1.8818766755
C                 2.1310733630       -1.1713601319        2.1326469990
C                 1.4924746190        0.0457368672        1.8639631284
O                 0.1643550511        0.0897172844        2.1491209925
C                -0.5568131988        1.2738666272        1.8823170722
C                -2.0147231006        1.0271310536        2.2613116426
C                -2.6767259264       -0.0570656742        1.4090159478
C                -2.9844899508        0.4046532779       -0.0137722996
C                -3.6421076270       -0.6807840040       -0.8668578349
C                -5.0472910239       -1.1065677996       -0.4338156666
C                -6.0974599401        0.0104293355       -0.5174907830
C                -6.3836228999        0.6723225504        0.8290159923
C                -7.4197745882        1.8034026626        0.7174199013
N                -8.7271766783        1.3439173344        0.3360797538
C                -9.4886687890        0.6124166658        1.2428585619
C               -10.5674263773       -0.1139824085        0.8636056848
C               -10.9727485898       -0.1960107333       -0.4931195716
N               -12.1176677299       -0.8805116747       -0.8888564665
C               -12.2760941105       -1.1841724372       -2.2915288894
C               -12.6849724144       -1.8404108037        0.0286865721
C               -10.1616098964        0.5225179726       -1.4100918685
C                -9.0867459948        1.2387235863       -1.0017968880
C                 2.2353666162        1.1020085725        1.3393399151
C                 3.5833282006        0.9444625903        1.0877608654
C                 7.9655722434        1.3524125332       -0.8789132584
C                 9.2985015832        1.4795612100       -1.1964696198
H                15.0826238938       -1.4992855109       -1.8644428489
H                14.4738906433       -1.1713135932       -3.4874326378
H                14.5609173231        0.1286689413       -2.3051377074
H                12.2169609463       -0.6714923574       -2.5411772135
H                12.7379281210       -2.3215344655       -2.1960752576
H                13.5248521666       -1.4752241491        0.0915788706
H                11.7785771660       -1.5127129290       -0.1891875564
H                13.5252700250        0.9785411667       -0.4834845530
H                12.5581216193        0.5937568188        0.9506363588
H                10.6205187070       -0.2132607034        1.4245738894
H                 8.2683402011       -0.4286453226        1.9785661579
H                 3.9723046029       -2.2579650773        2.0853915168
H                 1.5410257618       -1.9772643990        2.5403336757
H                -0.1549428909        2.1046060092        2.4799953907
H                -0.4734313955        1.5389115660        0.8202593537
H                -2.0376011555        0.7198671515        3.3082826678
H                -2.5622244170        1.9673968519        2.1674274186
H                -2.0160344089       -0.9243907751        1.3763886614
H                -3.6024617323       -0.3604909038        1.9001921777
H                -2.0532182978        0.6925152695       -0.5059012455
H                -3.6222624944        1.2903912803        0.0151769507
H                -2.9984598951       -1.5637485856       -0.8594104907
H                -3.6947696138       -0.3248270553       -1.8991822095
H                -5.0186410209       -1.5066501700        0.5802899290
H                -5.3502387115       -1.9254926223       -1.0900205492
H                -5.7650137819        0.7668384711       -1.2320380062
H                -7.0340038855       -0.4052275321       -0.8962042699
H                -6.7618825950       -0.0801221325        1.5250699518
H                -5.4691559051        1.0900726493        1.2498039416
H                -7.5029823185        2.3064325951        1.6872311318
H                -7.0843209078        2.5366349099       -0.0210455010
H                -9.1756340220        0.6818381230        2.2717813847
H               -11.1120471990       -0.6339345775        1.6332548614
H               -12.3260571672       -0.2603176083       -2.8683483060
H               -13.2147379591       -1.7153795631       -2.4368771606
H               -11.4609203052       -1.8043032857       -2.6886380558
H               -13.0032053631       -1.3379811049        0.9425273133
H               -11.9835266178       -2.6431779298        0.2935853301
H               -13.5662404802       -2.2892506264       -0.4254182072
H               -10.3805361546        0.5126146841       -2.4642127137
H                -8.4693440801        1.7888389979       -1.6930455308
H                 1.7709344130        2.0526105278        1.1265909152
H                 4.1517373900        1.7672663327        0.6834341036
H                 7.2037971459        1.7863160480       -1.5077699052
H                 9.6090289568        2.0168147243       -2.0787017693



