%chk=./calculation/no_transfer_pubchem_sampling_5_b3lyp/57613773.chk
%nprocshared=7
%mem=6GB
#p b3lyp/6-31g(d) opt SCF=XQC 

Gaussian input prepared by ASE

0 1
C                -1.6729897303       -3.1933256525       -0.6307036079
C                -0.7969443960       -2.0083693428       -0.2193962005
C                -0.2008579236       -2.2467294919        1.1690530402
C                -1.6162417135       -0.7546975348       -0.2093405858
C                -1.4755247867        0.3536682742       -0.9825001957
C                -0.4396177160        0.6160501385       -2.0313739781
N                 0.8852398811        0.3351233785       -1.5209064944
C                 1.2770501976        1.2589235398       -0.4720947750
C                 2.7425504463        1.0433610638       -0.0785918487
C                 3.1530759267       -0.3880901487       -0.4332928797
C                 4.5022207809       -0.7533701137        0.1254000712
C                 4.6352753868       -1.8492610821        0.9683779773
C                 5.8684665493       -2.2001490204        1.4890759943
C                 6.9916287092       -1.4558186164        1.1744997069
C                 6.8718021316       -0.3601367550        0.3367729628
C                 5.6380379274       -0.0135006022       -0.1829637085
C                 3.1105725343       -0.5367343247       -1.9622950608
C                 1.9127609076        0.2353232178       -2.5367306224
N                -2.4887750490        1.2536653713       -0.7316144694
C                -2.2954069810        2.6876343215       -0.7660159119
N                -3.2262242918        0.7296016711        0.3298407448
C                -4.5030607790        1.2128198461        0.6313894085
C                -4.9975493019        1.0638346296        1.9244702682
C                -6.2645251816        1.5235744283        2.2299170044
C                -7.0388251547        2.1470762249        1.2652506595
C                -6.5479525467        2.2905370781       -0.0215340051
C                -5.2895381809        1.8197760058       -0.3459765446
C                -2.7567422900       -0.5460116242        0.6605467034
O                -3.2705117622       -1.2621849935        1.4997990144
H                -2.0859568694       -3.0379125311       -1.6256654977
H                -2.4938689230       -3.3025496817        0.0733227755
H                -1.0904568559       -4.1118844791       -0.6356406005
H                 0.0132056678       -1.8794962160       -0.9431195913
H                 0.3962191974       -3.1561877515        1.1729035888
H                 0.4321619540       -1.4115977218        1.4626922758
H                -1.0006932738       -2.3499341134        1.8975824666
H                -0.5314261435        1.6514621799       -2.4064140155
H                -0.6243111060       -0.0613150201       -2.8724028924
H                 1.1306238876        2.3099789993       -0.7907760009
H                 0.6235328659        1.0724592089        0.3852577027
H                 2.8717400058        1.2213557188        0.9897878508
H                 3.3838194953        1.7467805410       -0.6117701304
H                 2.4035693544       -1.0591335374       -0.0058902016
H                 3.7620006692       -2.4342337026        1.2202695284
H                 5.9522145075       -3.0563578041        2.1425291890
H                 7.9553847195       -1.7267686176        1.5797789373
H                 7.7439225296        0.2270931669        0.0873390994
H                 5.5622383760        0.8448646571       -0.8347776435
H                 4.0344653437       -0.1601735666       -2.4033157059
H                 3.0312148394       -1.5952499309       -2.2119453892
H                 2.2289292747        1.2347361848       -2.8856405231
H                 1.5071188021       -0.2984503008       -3.3987966420
H                -1.3559772398        2.9824442907       -0.2887619776
H                -3.1189192061        3.1642860500       -0.2381626658
H                -2.3001689523        3.0357681361       -1.7992907639
H                -4.3933858854        0.5700739572        2.6668907748
H                -6.6468288872        1.3998418334        3.2320147016
H                -8.0242266971        2.5125745176        1.5120145000
H                -7.1518286236        2.7619508651       -0.7831013582
H                -4.9217044209        1.9029897815       -1.3580284583



