%chk=calculation/no_transfer_pubchem_sampling_5_b3lyp/57613773_rwf.chk
%rwf=calculation/no_transfer_pubchem_sampling_5_b3lyp/57613773_rwf.rwf
%nprocshared=14
%mem=3GB
#p b3lyp/6-31g(d) 6D 10F nosymm GFInput td=(50-50,nstate=2) SCF=XQC 

Gaussian input prepared by ASE

0 1
C                -2.0592446824       -3.2859563313       -0.6673329757
C                -1.0997993384       -2.1968955885       -0.1455132620
C                -0.5346773824       -2.5791739620        1.2369846065
C                -1.7830953469       -0.8523326695       -0.0963865038
C                -1.5248961334        0.2711216416       -0.8172166105
C                -0.4561232396        0.4935310055       -1.8628649264
N                 0.8936694809        0.2216593564       -1.3838306810
C                 1.3352268696        1.1775683809       -0.3604037301
C                 2.8419659311        1.0252733745       -0.0489673866
C                 3.3458478850       -0.3833221471       -0.4202665745
C                 4.7725328860       -0.6419705311        0.0339936754
C                 5.0487467455       -1.6652766375        0.9499694018
C                 6.3518720135       -1.9139858551        1.3854859772
C                 7.4083391230       -1.1365615609        0.9111275288
C                 7.1498159055       -0.1113775511       -0.0014555606
C                 5.8464668247        0.1306324262       -0.4346692733
C                 3.1505080046       -0.5956211160       -1.9440458250
C                 1.8780064051        0.1126342628       -2.4609156933
N                -2.4860217096        1.2694488815       -0.5780967529
C                -2.0283940893        2.6324755035       -0.2555628840
N                -3.3315650211        0.7465138821        0.4266078821
C                -4.6347192727        1.2817820750        0.5838998694
C                -5.3154826545        1.0784662358        1.7930994000
C                -6.5976136227        1.5999571477        1.9539662039
C                -7.2035197506        2.3389811089        0.9354218664
C                -6.5193181214        2.5405225755       -0.2637477686
C                -5.2436505580        2.0081820924       -0.4491874194
C                -2.9639041800       -0.5858016558        0.7273584323
O                -3.5795573058       -1.3186702932        1.4952476186
H                -2.4195694649       -3.0479642989       -1.6751053138
H                -2.9273041200       -3.3809105519       -0.0080789505
H                -1.5490521451       -4.2557867054       -0.7105350638
H                -0.2558877571       -2.1096524293       -0.8386291387
H                -0.0343179510       -3.5538411940        1.1885599224
H                 0.1964716423       -1.8386571937        1.5815000554
H                -1.3379925039       -2.6395847130        1.9774163933
H                -0.5546638203        1.5097271327       -2.2900661118
H                -0.6573278399       -0.1993385895       -2.6897856582
H                 1.1355365332        2.2203290748       -0.6798037139
H                 0.7391228084        0.9989951543        0.5418111152
H                 3.0229618193        1.2311612751        1.0114412903
H                 3.4181824094        1.7716349333       -0.6104466985
H                 2.6998862457       -1.1023951120        0.0967799714
H                 4.2308484409       -2.2760824409        1.3262340691
H                 6.5393857138       -2.7155762354        2.0953474234
H                 8.4239382245       -1.3267003437        1.2478853627
H                 7.9653232483        0.5012136439       -0.3776423262
H                 5.6650190245        0.9324541110       -1.1468515583
H                 4.0203976887       -0.2162674214       -2.4930533400
H                 3.0951589947       -1.6708914276       -2.1478855558
H                 2.1291860479        1.1078938833       -2.8796500491
H                 1.4351459403       -0.4629724076       -3.2808996591
H                -1.4523970939        2.6556695522        0.6787832268
H                -2.9012941927        3.2798159610       -0.1558310668
H                -1.4150212387        3.0055206139       -1.0764389496
H                -4.8447065876        0.5015270096        2.5782403191
H                -7.1225179411        1.4324677928        2.8906405726
H                -8.1993381365        2.7503790827        1.0741578808
H                -6.9826268240        3.1038378940       -1.0695711255
H                -4.7239608309        2.1321948987       -1.3932759576



