%chk=calculation/no_transfer_pubchem_sampling_5_b3lyp/57879926_rwf.chk
%rwf=calculation/no_transfer_pubchem_sampling_5_b3lyp/57879926_rwf.rwf
%nprocshared=14
%mem=3GB
#p b3lyp/6-31g(d) 6D 10F nosymm GFInput td=(50-50,nstate=2) SCF=XQC 

Gaussian input prepared by ASE

0 1
C               -11.0503798126       -0.2439735741       -1.3854822188
C                -9.5213798108       -0.2863936110       -1.3104467930
C                -8.9573118456        0.5292816658       -0.1288546724
C                -7.4470575416        0.4936913287       -0.0497749931
C                -6.7824328744       -0.4903620765        0.6929219380
C                -5.3914532659       -0.5476423403        0.7331506150
C                -4.6057164327        0.3819882529        0.0313654634
C                -3.1258118773        0.3265501090        0.1205438992
C                -2.4748893335       -0.0045089977        1.3227217583
C                -1.0895386799       -0.0780251955        1.4222763020
C                -0.2685902965        0.1805331163        0.3114771438
C                 1.2097113382        0.1076573711        0.4069864534
C                 1.8843391994        0.5163207559        1.5680752135
C                 3.2732619867        0.4444236023        1.6542249164
C                 4.0490577161       -0.0360663006        0.5915726183
C                 5.5619022290       -0.1107743567        0.7042154937
C                 6.0886224298       -1.5618947013        0.6236489049
C                 7.6168510707       -1.6237562010        0.7634123985
C                 8.3369817293       -0.7429324821       -0.2730928399
C                 9.8596401484       -0.7990979633       -0.1070249943
C                 7.8075451759        0.7003936155       -0.1968223018
C                 6.2801047654        0.7723722832       -0.3410513022
C                 3.3733378843       -0.4441470124       -0.5686718858
C                 1.9862016002       -0.3743954116       -0.6606031586
C                -0.8986028775        0.5144503944       -0.8970384776
C                -2.2814057153        0.5795032515       -0.9696164868
F                -2.8229606843        0.9039973715       -2.1685929472
C                -5.2719313220        1.3668561517       -0.7183398975
C                -6.6628590321        1.4189811583       -0.7516609777
H               -11.5046264416       -0.6502049226       -0.4732248257
H               -11.4139825210        0.7840691849       -1.5057680338
H               -11.4233345091       -0.8303957041       -2.2328042898
H                -9.0909110616        0.0955597037       -2.2456387954
H                -9.1804774249       -1.3264475039       -1.2213217924
H                -9.3859785913        0.1434863686        0.8059513264
H                -9.2981519541        1.5694309125       -0.2212828128
H                -7.3624963060       -1.2266639978        1.2456085248
H                -4.9068024163       -1.3359177371        1.3027079369
H                -3.0806999617       -0.1949757883        2.2038037011
H                -0.6383745215       -0.3580043614        2.3692976054
H                 1.3184573298        0.9204651783        2.4029529894
H                 3.7667012916        0.7775749532        2.5648722746
H                 5.8345220142        0.2772535608        1.6973974972
H                 5.6098244304       -2.1715848101        1.4001081923
H                 5.7932071244       -2.0005531265       -0.3402489718
H                 7.9577525889       -2.6638887036        0.6727356670
H                 7.9036777006       -1.2913608469        1.7732743748
H                 8.0883441845       -1.1355871194       -1.2727037389
H                10.3665366477       -0.1933102108       -0.8678577750
H                10.2327512177       -1.8267860846       -0.1932302189
H                10.1616788160       -0.4173991256        0.8770049163
H                 8.2845904052        1.3159602493       -0.9712747676
H                 8.1026490449        1.1367676264        0.7701679984
H                 5.9368077420        1.8100976540       -0.2454496549
H                 5.9945536275        0.4437030556       -1.3505825234
H                 3.9362594044       -0.8321769437       -1.4140034778
H                 1.4945417390       -0.7239819881       -1.5644275875
H                -0.3247077281        0.7471231509       -1.7877678350
H                -4.6970529160        2.1040009298       -1.2673197598
H                -7.1504928269        2.2008372424       -1.3304963153



