%chk=./calculation/no_transfer_pubchem_sampling_5_b3lyp/57934751.chk
%nprocshared=7
%mem=6GB
#p b3lyp/6-31g(d) opt SCF=XQC 

Gaussian input prepared by ASE

0 1
C                -5.6558634322        1.8726484355       -1.0849872947
C                -5.2799220322        0.8486404799       -0.5769111182
C                -4.8226832449       -0.3864532203        0.0372938542
C                -5.6416240078       -1.5666454173       -0.4963920279
C                -5.1316715922       -2.8515261327        0.1484385735
C                -5.3051688674       -2.7715621926        1.6619638797
C                -4.4875199669       -1.5947362952        2.1857160210
C                -4.9925751089       -0.2993381209        1.5588939324
C                -3.0111782182       -1.8049525950        1.8459358195
C                -2.7915167791       -1.8905687324        0.3247792190
C                -1.2685060837       -2.1051771122       -0.0334694291
C                -0.6974622126       -3.3424773397        0.6755361446
C                 0.7766094525       -3.5325979958        0.3268271862
C                 0.9396060331       -3.7310934597       -1.1741639738
C                 0.4095064496       -2.4863634247       -1.8742685817
C                -1.0698368375       -2.3038167926       -1.5441131720
C                 1.2151585642       -1.2669668918       -1.4331570969
C                 1.0757235451       -1.0426236028        0.0805888420
C                 1.8827925497        0.2303433404        0.5519357531
C                 1.3350732168        1.5198689304       -0.0858441731
C                 2.1321531925        2.7461354675        0.3614941187
C                 2.0331593705        2.8956612208        1.8767587027
C                 2.6067416003        1.6417968154        2.5297105656
C                 4.0734418748        1.4859323543        2.1413634893
C                 4.1696672723        1.3432301292        0.6182206421
C                 5.5593553688        1.1761509706        0.2280476435
C                 6.7101456528        1.0371685620       -0.0950283811
C                 8.0638540071        0.8751892916       -0.4752242096
C                 9.0362300055        1.7594495586       -0.0077990778
C                10.3560789194        1.5972757817       -0.3819352768
C                10.7212234763        0.5573274427       -1.2220199044
C                 9.7590725630       -0.3239136946       -1.6890067496
C                 8.4366231195       -0.1700745255       -1.3205453698
C                 3.5944204116        2.5998413439       -0.0458250523
C                 3.3665887820        0.1161891067        0.1612346069
C                 1.8202178065        0.4097499721        2.0795187321
C                 1.5739686826       -2.3138004198        0.7846376806
C                -0.4258098436       -0.8859312852        0.3846943004
C                -3.6562272693       -3.0505416943       -0.2008482162
C                -3.3363171465       -0.5912973195       -0.2933331301
C                -6.0992886113        3.0769922385       -1.6819264391
C                -5.1815777752        4.0677017111       -2.0319090337
C                -5.6190828427        5.2417239683       -2.6137276618
C                -6.9693470289        5.4417816189       -2.8527090885
C                -7.8849815791        4.4605903294       -2.5071193210
C                -7.4573154474        3.2831474915       -1.9248200598
H                -5.5409528000       -1.6226632858       -1.5829935152
H                -6.6990149413       -1.4176416510       -0.2650731358
H                -5.7042831864       -3.7019217157       -0.2408471237
H                -6.3601874479       -2.6388022097        1.9130366121
H                -4.9641705841       -3.6996460864        2.1266607341
H                -4.5931576919       -1.5320013280        3.2755281094
H                -6.0451777601       -0.1426070880        1.8060754559
H                -4.4280902596        0.5534399082        1.9438638278
H                -2.4356762925       -0.9784531723        2.2655595269
H                -2.6821359098       -2.7264385819        2.3266767064
H                -1.2478479834       -4.2374107012        0.3823171241
H                -0.7784869806       -3.2310395457        1.7571012614
H                 1.1521131827       -4.4176876363        0.8552345771
H                 1.9923257828       -3.8851493447       -1.4219211116
H                 0.3849704406       -4.6139024726       -1.5005058014
H                 0.5156177756       -2.6040888323       -2.9598072104
H                -1.4488215728       -1.4408746762       -2.0933713854
H                -1.6061359775       -3.1889145726       -1.8872383264
H                 2.2589920789       -1.4329027143       -1.7008672230
H                 0.8569580013       -0.3941801074       -1.9806339989
H                 1.3805284239        1.4517314618       -1.1735696797
H                 0.2943869263        1.6716369102        0.2022193296
H                 1.7112506268        3.6358353931       -0.1222161085
H                 0.9894352645        3.0270255283        2.1718907800
H                 2.5877288427        3.7777430129        2.2054755323
H                 2.5304308042        1.7297821706        3.6202339137
H                 4.6485647517        2.3552870194        2.4687755683
H                 4.5004158106        0.6018973560        2.6211102386
H                 8.7453403278        2.5682930619        0.6469760311
H                11.1058355392        2.2847984621       -0.0173899374
H                11.7542639116        0.4338597238       -1.5123636714
H                10.0430452991       -1.1350927808       -2.3440947246
H                 7.6818901638       -0.8540048247       -1.6814654986
H                 3.6783538576        2.5128870843       -1.1317831835
H                 4.1653248359        3.4780465438        0.2648735139
H                 3.8121293443       -0.7713353077        0.6126540413
H                 3.4697411385        0.0350644808       -0.9213033958
H                 2.2412007558       -0.4629899335        2.5795635125
H                 0.7851035207        0.5216787733        2.4049867934
H                 2.6292337152       -2.4818794803        0.5661549271
H                 1.4601173443       -2.2188376151        1.8648880875
H                -0.5557563415       -0.7155643868        1.4518791940
H                -0.7926654625       -0.0161979461       -0.1552982072
H                -3.3198019466       -3.9948780330        0.2289264154
H                -3.5719966741       -3.1210400555       -1.2856147958
H                -2.7916861208        0.2720990099        0.0904786430
H                -3.2246142936       -0.6086547443       -1.3784302920
H                -4.1299633553        3.9059570513       -1.8432573237
H                -4.9044860433        6.0063115937       -2.8830671334
H                -7.3077008093        6.3610968426       -3.3077498098
H                -8.9380143413        4.6158805007       -2.6933213495
H                -8.1664136794        2.5143696452       -1.6532963817



