%chk=./calculation/no_transfer_pubchem_sampling_5_b3lyp/57991128.chk
%nprocshared=7
%mem=6GB
#p b3lyp/6-31g(d) opt SCF=XQC 

Gaussian input prepared by ASE

0 1
C                10.3197570639        1.6124972737        0.0379655500
C                 9.0667010114        1.3073473094       -0.7585663437
O                 9.0643318783        1.1472292838       -1.9557959913
N                 7.9573415045        1.2361652865        0.0383870067
C                 6.6323224429        0.9732848228       -0.3130294087
C                 5.6764788066        0.9721580210        0.7041834244
C                 4.3536034403        0.7196252693        0.4191630231
C                 3.9411038821        0.4693369781       -0.8899256959
C                 2.5232042781        0.2119138855       -1.1585596138
C                 1.9417462502        0.3962224339       -2.4196710483
C                 0.5916268514        0.1207123811       -2.5223726643
N                -0.1426679187       -0.2994413016       -1.5065287529
C                 0.4901668671       -0.4430003735       -0.3401887392
N                -0.1683206743       -0.8610999547        0.7674988180
C                -1.4952745492       -1.2255494203        0.9687043022
C                -1.8775240024       -1.5847379568        2.2631546607
C                -3.1864798234       -1.9457818246        2.5113556156
C                -4.1292676450       -1.9617299798        1.5003654636
C                -3.7565493236       -1.6141618167        0.2009880900
N                -4.6278629120       -1.6689404114       -0.8662354103
C                -6.0531580150       -1.7561495807       -0.7197565761
C                -6.7249298029       -0.5395020049       -0.1164640825
C                -6.0461402363        0.6279238127        0.1997325812
C                -6.7121538599        1.7093609833        0.7528211634
C                -8.0720842537        1.6448908633        0.9982538945
C                -8.7741678639        0.4916854677        0.6901976990
C                -8.0902998681       -0.5742146830        0.1419943177
F                -8.7768773399       -1.7031328246       -0.1582314330
C                -2.4339876278       -1.2403461586       -0.0497723673
N                 1.7884568028       -0.1974919311       -0.1313361101
C                 4.9021760542        0.4634471609       -1.8985802066
C                 6.2316665988        0.7094079961       -1.6202166600
H                10.2093327291        2.5532579753        0.5732988805
H                10.5083626903        0.8178271746        0.7571638398
H                11.1635820708        1.6845769356       -0.6416759510
H                 8.1011629249        1.3938506707        1.0268411783
H                 5.9802143097        1.1712688184        1.7232205412
H                 3.6122251598        0.7158792575        1.2024217567
H                 2.5042304879        0.7555734284       -3.2635917884
H                 0.0589651076        0.2400005421       -3.4581818525
H                 0.4309891190       -0.9185200026        1.5804223088
H                -1.1512605841       -1.5749278124        3.0627557962
H                -3.4826567266       -2.2167816031        3.5142231898
H                -5.1458168008       -2.2369318746        1.7290666706
H                -4.3047837373       -1.1846621528       -1.6899618359
H                -6.2971524808       -2.6313579305       -0.1067989704
H                -6.4841612796       -1.9378827563       -1.7102957810
H                -4.9837150141        0.6912391866        0.0206554056
H                -6.1622114668        2.6063845287        0.9932924579
H                -8.5894814429        2.4880208618        1.4293742125
H                -9.8345215998        0.4085905855        0.8692173734
H                -2.1315046117       -0.9626680739       -1.0456159456
H                 4.6199621478        0.2421719515       -2.9164061318
H                 6.9653019817        0.6971622825       -2.4084028608



