%chk=calculation/no_transfer_pubchem_sampling_5_b3lyp/57991128_rwf.chk
%rwf=calculation/no_transfer_pubchem_sampling_5_b3lyp/57991128_rwf.rwf
%nprocshared=14
%mem=3GB
#p b3lyp/6-31g(d) 6D 10F nosymm GFInput td=(50-50,nstate=2) SCF=XQC 

Gaussian input prepared by ASE

0 1
C                10.5230092235        1.5838101412        0.0028256342
C                 9.2186597101        1.3759093271       -0.7546570447
O                 9.1784320150        1.3908022351       -1.9753828580
N                 8.1175795789        1.1633785846        0.0521650618
C                 6.7808425655        0.9244797617       -0.3169626997
C                 5.8459447917        0.7450604383        0.7173138438
C                 4.5109125382        0.5046365108        0.4325786729
C                 4.0549453725        0.4405097115       -0.8949139195
C                 2.6204886711        0.1891698127       -1.1734132452
C                 2.0508798136        0.3478324947       -2.4519552093
C                 0.6958136840        0.0777515687       -2.5698964293
N                -0.0784827205       -0.3131360733       -1.5518788060
C                 0.5526451902       -0.4272754393       -0.3705362000
N                -0.1381999402       -0.8152798679        0.7506804885
C                -1.4820263786       -1.1569337486        0.9772971878
C                -1.8250339957       -1.4945243058        2.3016682310
C                -3.1371371533       -1.8381888403        2.5989826537
C                -4.1278031204       -1.8585083046        1.6171815702
C                -3.7872113336       -1.5345010057        0.2926336104
N                -4.7110667501       -1.5823357840       -0.7471920551
C                -6.1338820821       -1.7576753505       -0.5746125954
C                -6.9165144107       -0.5496750319       -0.0651471932
C                -6.3435749235        0.6997419345        0.1859421296
C                -7.1195564033        1.7726598000        0.6332868336
C                -8.4903400998        1.6109739947        0.8359679386
C                -9.0891530774        0.3727955836        0.5920611452
C                -8.2902220910       -0.6713736072        0.1501389668
F                -8.8646206813       -1.8779011216       -0.0925280272
C                -2.4601622739       -1.1785794018       -0.0190359579
N                 1.8615215832       -0.1946407823       -0.1394251359
C                 4.9999230571        0.6164205945       -1.9176370138
C                 6.3444422621        0.8544543368       -1.6492995348
H                10.4079302015        1.6506500398        1.0892717768
H                11.1998050173        0.7547695047       -0.2286401528
H                10.9944815501        2.5006581400       -0.3621002705
H                 8.2857412913        1.1769321962        1.0487529069
H                 6.1732839274        0.7962831171        1.7542867114
H                 3.7961204539        0.3635926680        1.2350480815
H                 2.6227721702        0.6818824300       -3.3079421118
H                 0.1946377475        0.1818436334       -3.5314275947
H                 0.4647377636       -0.8594268267        1.5614869711
H                -1.0674703276       -1.4789203046        3.0814907461
H                -3.4019251362       -2.0895876474        3.6228531868
H                -5.1477200219       -2.1087758437        1.8855698939
H                -4.4207520795       -1.1265299637       -1.6005208772
H                -6.3094635824       -2.6110922846        0.0911010091
H                -6.5476520357       -2.0644569465       -1.5430427070
H                -5.2758901150        0.8258307551        0.0365233964
H                -6.6500108603        2.7331927079        0.8249576335
H                -9.0970156734        2.4422633798        1.1837661762
H               -10.1518384971        0.2068826277        0.7368506062
H                -2.1855895217       -0.9294183942       -1.0355749987
H                 4.6969282130        0.5511013608       -2.9577953098
H                 7.0578378944        0.9824684849       -2.4506081164



