%chk=calculation/no_transfer_pubchem_sampling_5_b3lyp/58917751_rwf.chk
%rwf=calculation/no_transfer_pubchem_sampling_5_b3lyp/58917751_rwf.rwf
%nprocshared=14
%mem=3GB
#p b3lyp/6-31g(d) 6D 10F nosymm GFInput td=(50-50,nstate=2) SCF=XQC 

Gaussian input prepared by ASE

0 1
N                 5.9870348311        0.7087898091       -2.5892371462
C                 5.1008750578        0.4244323210       -1.8913244859
C                 4.0105164714        0.0728368092       -1.0288164551
C                 4.0675787249        0.3805275322        0.3405214168
C                 3.0038015732        0.0400198535        1.1690968976
C                 1.8751861666       -0.6144276122        0.6587022775
C                 0.7559376590       -1.0181913498        1.6093193063
N                -0.5490168431       -1.1618599536        0.9928177563
C                -1.1820416549       -2.3677087096        0.7060882488
C                -2.3921004978       -2.1382970214        0.1152174983
C                -2.5456320275       -0.7118727085        0.0175309929
C                -3.5475209794        0.1291547123       -0.4731462934
C                -3.3659090799        1.5135612431       -0.4062229711
C                -4.4131993737        2.4179797456       -0.9198224368
O                -5.4663029910        2.0596623576       -1.4157110164
C                -2.1853578624        2.0636695109        0.1470788466
C                -1.1723488730        1.2560457373        0.6408453265
C                -1.3663468653       -0.1306575925        0.5751097475
C                 1.8235694944       -0.9159211043       -0.7069010717
C                 2.8788155420       -0.5762779829       -1.5482831678
H                 4.9384568602        0.8886893369        0.7416705688
H                 3.0521671032        0.2878360831        2.2269791583
H                 0.9984162035       -1.9804394801        2.0760202571
H                 0.6860257489       -0.2892860025        2.4259548048
H                -0.6978401639       -3.2997204035        0.9656472927
H                -3.0986927484       -2.8909750687       -0.2054004445
H                -4.4647424767       -0.2592782671       -0.9059096483
H                -4.1750867028        3.5017814861       -0.8236490574
H                -2.0746702517        3.1451814030        0.1787154481
H                -0.2633509244        1.6851366804        1.0511136515
H                 0.9490350162       -1.4115711686       -1.1167668529
H                 2.8327418639       -0.8088171959       -2.6072394487



