%chk=./calculation/no_transfer_pubchem_sampling_5_b3lyp/5943198.chk
%nprocshared=7
%mem=6GB
#p b3lyp/6-31g(d) opt SCF=XQC 

Gaussian input prepared by ASE

0 1
C                 1.6507576950        0.6486200603        2.9009402882
N                 0.8606666053        1.3751445043        3.5898901329
N                -0.2869179594        1.9058221720        3.1114627547
C                -1.1998804235        1.4114009671        2.2273779972
N                -1.1034205991        0.1600093738        1.8054821660
C                -2.0459161684       -0.1971276304        0.9240135613
N                -2.0289907172       -1.4646498492        0.4818089488
C                -3.0100305422       -1.9352677735       -0.4686475356
C                -3.3409127903       -3.3954990751       -0.1838559400
C                -2.0995557542       -4.2785143582       -0.3655885631
C                -0.8209610906       -3.4885773188       -0.0582788549
C                -1.0855183171       -2.4268659714        1.0014252000
N                -2.9922228516        0.6105561267        0.4442843747
C                -3.0197286446        1.8306440921        0.9870590495
N                -3.9842373644        2.6685409649        0.5729149126
C                -4.9043285086        2.2720535295       -0.4690558951
C                -6.1536943918        3.1404619819       -0.4011888370
C                -5.8104164509        4.6123748687       -0.6622224341
C                -4.4010844360        4.9435241296       -0.1534421179
C                -4.0274917623        4.0421431362        1.0180128752
N                -2.1648920456        2.2756694990        1.9129903717
C                 1.6541830799        0.2344776306        1.5153294328
C                 2.2147507105       -0.9434142140        1.0811249009
N                 2.0670626105       -1.0891334261       -0.2641961177
C                 2.5970376817       -2.1918486645       -1.0290377280
C                 4.0197674394       -2.5027593553       -0.6327679403
C                 4.3097733688       -3.7090726706       -0.0488964944
C                 5.6138687978       -4.0325847117        0.3506211311
C                 6.6257526249       -3.1347436581        0.1693920342
C                 6.3743944511       -1.8799413332       -0.4236260160
C                 7.4113781319       -0.9431040108       -0.6146971193
C                 7.1630723207        0.2711251112       -1.1886333082
C                 5.8632486300        0.5966755469       -1.6011707730
C                 4.8358191908       -0.2893968206       -1.4326468064
C                 5.0544462122       -1.5506942884       -0.8365385493
C                 1.4132509110        0.0143197975       -0.7477762700
C                 1.0205124449        0.3261469145       -2.0438234987
C                 0.4011923620        1.5389574605       -2.2547794617
C                 0.2059215364        2.4391952093       -1.2065917721
C                 0.5914308263        2.1369700794        0.0802542137
C                 1.1607855149        0.8904958141        0.3368023578
H                 2.4767434488        0.2626565116        3.4915549765
H                -0.6086911045        2.7041959319        3.6427723695
H                -2.6262640972       -1.8275540659       -1.4923167437
H                -3.8924405622       -1.2994291056       -0.3749327239
H                -3.7064457549       -3.4716392684        0.8414191224
H                -4.1415615101       -3.7253895216       -0.8465450545
H                -2.1723765982       -5.1428488283        0.2966025545
H                -2.0532456726       -4.6534926557       -1.3895910296
H                -0.4690664238       -2.9887077571       -0.9624922367
H                -0.0360077154       -4.1635599260        0.2861369557
H                -1.4819381382       -2.8977655351        1.9120264457
H                -0.1763222977       -1.8891855338        1.2762261540
H                -5.1455250020        1.2170412271       -0.3201355062
H                -4.4294703070        2.3664904164       -1.4553290291
H                -6.5970858336        3.0306755663        0.5897244395
H                -6.8829395404        2.7873330314       -1.1311108342
H                -5.8666192010        4.8240574744       -1.7312945715
H                -6.5469512880        5.2452216282       -0.1643161987
H                -4.3432611152        5.9882108004        0.1535482693
H                -3.6707776605        4.7897996309       -0.9496359456
H                -3.0413592203        4.2881845920        1.4158350357
H                -4.7593198571        4.1566123076        1.8286313902
H                 2.6963206797       -1.7089860834        1.6606365055
H                 1.9797028478       -3.0848068919       -0.8712806247
H                 2.5493522479       -1.9301889651       -2.0895263705
H                 3.5206718193       -4.4314677535        0.1085842854
H                 5.8047665250       -4.9933934940        0.8051182873
H                 7.6341685490       -3.3697913891        0.4779180267
H                 8.4094499310       -1.2075012350       -0.2952793306
H                 7.9616489469        0.9844534950       -1.3297608778
H                 5.6754204895        1.5581101942       -2.0560564802
H                 3.8467674140       -0.0100679815       -1.7585902549
H                 1.1903478076       -0.3541055159       -2.8671613459
H                 0.0751862243        1.8045981785       -3.2498813968
H                -0.2556668646        3.3938352316       -1.4134349326
H                 0.4539135054        2.8562734492        0.8719139995



