%chk=calculation/no_transfer_pubchem_sampling_5_b3lyp/60198838_rwf.chk
%rwf=calculation/no_transfer_pubchem_sampling_5_b3lyp/60198838_rwf.rwf
%nprocshared=14
%mem=3GB
#p b3lyp/6-31g(d) 6D 10F nosymm GFInput td=(50-50,nstate=2) SCF=XQC 

Gaussian input prepared by ASE

0 1
O                 6.7763516525        0.2395107845       -2.5086490520
C                 6.1740133630        0.5795769177       -1.4871233724
N                 6.6037383093        1.6907983940       -0.7922447947
O                 7.8465674917        2.1923479874       -1.2159946546
C                 4.9718660039       -0.1157385491       -0.9571579330
C                 4.7264766587       -1.4257985574       -1.3818438818
C                 3.6193206172       -2.1077559113       -0.8942564665
C                 2.7218975523       -1.5225955488        0.0131644216
C                 2.9628009876       -0.1970687585        0.4325341820
C                 4.0762671131        0.4860060619       -0.0659201341
C                 2.0758520255        0.5433495030        1.4279978889
N                 0.6490450983        0.2494357674        1.3191311582
C                -0.0672883328        0.9690145750        0.3922385645
O                 0.4735617856        1.8079337055       -0.3258077454
C                -1.5598204680        0.7333162343        0.2812918365
C                -2.3339434585        1.1481398527        1.3090221676
C                -3.7978870462        1.2763421079        1.4153279589
C                -4.6408809195        1.5200883854        0.3148795742
C                -6.0143892975        1.6676269664        0.4912936009
C                -6.5804467875        1.5764261978        1.7657619497
C                -5.7561900667        1.3514697369        2.8693987027
C                -4.3806120699        1.2138995184        2.6947189767
C                -2.0195927605        0.1182174955       -0.9952365768
C                -1.5426464572        0.5659249420       -2.2396455484
C                -1.9561559853       -0.0546172487       -3.4189339702
C                -2.8388245817       -1.1351089603       -3.3791883018
C                -3.3080762242       -1.5963925597       -2.1469831807
C                -2.9014019029       -0.9775277017       -0.9666956895
C                 0.1520360851       -0.9031351010        2.0694978778
C                 1.0651933275       -2.1302673179        1.9117777633
C                 1.5258897706       -2.3507004120        0.4607413288
H                 6.5787714453        1.6655788335        0.2208451934
H                 8.0219116985        1.6111370773       -1.9948454934
H                 5.4084388233       -1.8884018341       -2.0874712204
H                 3.4376498169       -3.1279634211       -1.2243573551
H                 4.2193194560        1.5255783223        0.2184288440
H                 2.2051233337        1.6171888423        1.2808195955
H                 2.3815303016        0.3115396139        2.4565495141
H                -1.8048361523        1.4675642603        2.2080413443
H                -4.2139892024        1.6109634029       -0.6774368129
H                -6.6461413702        1.8627924563       -0.3712440851
H                -7.6528518868        1.6918689816        1.8977345302
H                -6.1825516016        1.2911242271        3.8672789084
H                -3.7417157920        1.0509313604        3.5600480221
H                -0.8494079831        1.3990139721       -2.2669131753
H                -1.5833884797        0.3092026748       -4.3728078956
H                -3.1559658601       -1.6173620522       -4.3000128772
H                -3.9889151478       -2.4425589540       -2.1035623372
H                -3.2693330900       -1.3401198416       -0.0111260844
H                 0.0504927638       -0.6473743823        3.1347505405
H                -0.8461547117       -1.1367038877        1.6974239845
H                 0.5061561515       -3.0074950284        2.2600516699
H                 1.9408093387       -2.0495312871        2.5675771581
H                 1.7829823270       -3.4074127180        0.3254135593
H                 0.6793453379       -2.1622801254       -0.2164931778



