%chk=./calculation/no_transfer_pubchem_sampling_5_b3lyp/6104094.chk
%nprocshared=7
%mem=6GB
#p b3lyp/6-31g(d) opt SCF=XQC 

Gaussian input prepared by ASE

0 1
C                -9.7591448709       -0.9056057657        0.8776277398
C                -8.3702017315       -1.1860569678        0.3166530387
C                -7.7741843318        0.0540080171       -0.3460523818
C                -6.4451469342       -0.2100575228       -1.0558885286
C                -5.3173694482       -0.7010497686       -0.1486483916
C                -4.9644415210        0.2987947182        0.9554689318
O                -3.8135131366       -0.0855406704        1.6808384432
C                -2.5807289637        0.0793431420        1.1386092595
C                -2.2981473470        0.7067902197       -0.0733366196
C                -0.9930865643        0.8310506685       -0.5051539657
C                 0.0773623096        0.3373838878        0.2437982741
C                 1.4554051749        0.4423116389       -0.1708442649
C                 1.9208569206        1.0126659317       -1.2977021672
C                 3.3129495125        1.0614827839       -1.6090336003
N                 4.2778433784        0.5872297805       -0.8995638939
C                 5.5013341958        0.7870053284       -1.4513763396
C                 6.6872144060        0.2995679470       -0.7586450398
C                 6.5337471719       -0.4691336674        0.3947871784
C                 7.6358414599       -0.9462746216        1.0740519368
C                 8.9237684982       -0.6729615961        0.6280507050
C                10.1193041550       -1.2109786169        1.3528914052
C                 9.0748015488        0.0955786295       -0.5204136283
C                 7.9775432337        0.5771653106       -1.2063498315
C                 5.4681861676        1.4499048204       -2.6535585583
S                 3.8611853787        1.8354750309       -3.1056276314
C                -0.2219236158       -0.2899221837        1.4609124343
C                -1.5174115064       -0.4168123223        1.8997867842
H                -9.7174020758       -0.1096738940        1.6182345126
H               -10.1673345274       -1.7946368075        1.3525142767
H               -10.4375858691       -0.5981495332        0.0846408103
H                -7.7217139515       -1.5212478873        1.1275068103
H                -8.4316749432       -1.9921758689       -0.4180678154
H                -7.6454031873        0.8387277256        0.4017179666
H                -8.4844359920        0.4272010720       -1.0883958344
H                -6.6056164283       -0.9584713260       -1.8354019298
H                -6.1257150924        0.7127222353       -1.5476965680
H                -5.5864469806       -1.6523444843        0.3115655872
H                -4.4281602540       -0.8773414271       -0.7587858720
H                -5.7555176950        0.3286121674        1.7085173452
H                -4.8440073375        1.3076499970        0.5406135962
H                -3.0874342646        1.1069641063       -0.6904518027
H                -0.8084049043        1.3229436501       -1.4475517689
H                 2.1861042402        0.0149845800        0.5030067910
H                 1.2649979263        1.4650277954       -2.0266786750
H                 5.5356681463       -0.6816525654        0.7446047118
H                 7.4974160875       -1.5403720185        1.9665436001
H                10.9734261514       -0.5469634124        1.2403497454
H                 9.9062658121       -1.3385811583        2.4117644736
H                10.3942908181       -2.1846527626        0.9449849834
H                10.0687184643        0.3218949513       -0.8806552001
H                 8.1283407394        1.1776991048       -2.0906407474
H                 6.2796726444        1.7243177475       -3.2954504508
H                 0.5846690324       -0.6808226109        2.0638882700
H                -1.7447600994       -0.8982125281        2.8380388956



