%chk=calculation/no_transfer_pubchem_sampling_5_b3lyp/6104094_rwf.chk
%rwf=calculation/no_transfer_pubchem_sampling_5_b3lyp/6104094_rwf.rwf
%nprocshared=14
%mem=3GB
#p b3lyp/6-31g(d) 6D 10F nosymm GFInput td=(50-50,nstate=2) SCF=XQC 

Gaussian input prepared by ASE

0 1
C                -9.8653463554       -1.0520853216        1.0627915803
C                -8.5164214505       -1.2507607034        0.3634095733
C                -7.9736416966        0.0416677199       -0.2624241438
C                -6.6675049475       -0.1275041448       -1.0604671346
C                -5.4421137224       -0.6098481196       -0.2631494688
C                -5.0067878237        0.3643784451        0.8329244682
O                -3.8564527414       -0.0990462865        1.5486507053
C                -2.6087508238        0.0726412137        1.0305223008
C                -2.3109928061        0.7335355170       -0.1723809109
C                -0.9885154416        0.8633231617       -0.5844635256
C                 0.0795375824        0.3454204127        0.1703323602
C                 1.4800596365        0.4537277972       -0.2199374906
C                 1.9850358396        1.0464121581       -1.3253401429
C                 3.4047837684        1.0955211837       -1.6156593088
N                 4.3651592831        0.5947485263       -0.8835395490
C                 5.6125913566        0.8053752099       -1.4312421668
C                 6.8050599438        0.2983917607       -0.7235030786
C                 6.6621693043       -0.3730466593        0.5005036674
C                 7.7755906103       -0.8552760558        1.1842791150
C                 9.0703981956       -0.6915349615        0.6774297157
C                10.2738514169       -1.2423853826        1.4051902106
C                 9.2103884149       -0.0171104297       -0.5439096540
C                 8.1031899341        0.4673362422       -1.2326743247
C                 5.6029345197        1.4924275023       -2.6247888214
S                 3.9869726935        1.8925090431       -3.0867588620
C                -0.2463690539       -0.3165219863        1.3728406640
C                -1.5582161165       -0.4533207353        1.7982500417
H                -9.7881142084       -0.3149220018        1.8715974389
H               -10.2307352730       -1.9880158472        1.5001752134
H               -10.6269822691       -0.6922361339        0.3601435308
H                -7.7926887478       -1.6519200475        1.0855193486
H                -8.6185830189       -2.0147174614       -0.4207594359
H                -7.8432188230        0.7983543051        0.5247234708
H                -8.7358326065        0.4512276252       -0.9402372454
H                -6.8446537915       -0.8394460074       -1.8780152606
H                -6.4227707797        0.8295005448       -1.5436590218
H                -5.6384084785       -1.5839717742        0.2003825008
H                -4.6064467559       -0.7637735026       -0.9564414933
H                -5.7778952898        0.4552099848        1.6024841192
H                -4.8262866846        1.3700103618        0.4296862702
H                -3.0980448351        1.1458607739       -0.7930253223
H                -0.7903180724        1.3793151545       -1.5195819585
H                 2.1965132286        0.0022016743        0.4639834638
H                 1.3326489422        1.5193294064       -2.0551677873
H                 5.6661927882       -0.5067374765        0.9077646255
H                 7.6349823761       -1.3687362020        2.1331640438
H                11.1477779690       -0.5920875418        1.2868419194
H                10.0775988583       -1.3534691234        2.4768141015
H                10.5541143579       -2.2327599460        1.0211243169
H                10.2038321045        0.1319888687       -0.9617672640
H                 8.2571534686        0.9851777521       -2.1753567978
H                 6.4387364005        1.7809327419       -3.2450915606
H                 0.5548221051       -0.7289880138        1.9814128248
H                -1.8000024849       -0.9614922211        2.7263971391



