%chk=calculation/no_transfer_pubchem_sampling_5_b3lyp/67681491_rwf.chk
%rwf=calculation/no_transfer_pubchem_sampling_5_b3lyp/67681491_rwf.rwf
%nprocshared=14
%mem=3GB
#p b3lyp/6-31g(d) 6D 10F nosymm GFInput td=(50-50,nstate=2) SCF=XQC 

Gaussian input prepared by ASE

0 1
C                12.7457534841        1.5232452395        0.3384959463
C                12.6800127083        1.0045739050       -1.1031242024
C                11.4286986224        0.1692960612       -1.4238157201
C                10.1114756401        0.9590240297       -1.3738875486
C                 8.8781031515        0.1582469777       -1.8324535295
C                 8.4540242192       -0.9949927093       -0.9077732450
C                 7.8353736663       -0.6234844111        0.4181043076
C                 7.4324897279        0.5839372120        0.8231586238
C                 6.8509346115        0.8637213519        2.1821396184
O                 5.7022281385        1.7192549329        2.1386690079
C                 4.4863223262        1.2136778749        1.7767076251
C                 3.4222715242        2.1291345783        1.8128981592
C                 2.1375281233        1.7242045476        1.4860511884
C                 1.8728413390        0.3937788289        1.1131074863
C                 0.5018356175       -0.0386279559        0.7659428728
N                 0.3113325303       -1.3215486484        0.4190188967
C                -0.9277866421       -1.7100701229        0.1071586738
C                -2.0095500334       -0.8249648742        0.1351382693
O                -3.3028139806       -1.1126364363       -0.1614961723
C                -3.6315563676       -2.4562515592       -0.5349843039
C                -5.1295385144       -2.5219461829       -0.7948106229
C                -5.9851044173       -2.2254793317        0.4420768851
C                -7.4873848973       -2.2490462958        0.1412344011
O                -7.8637616969       -1.2987406143       -0.8491836348
C                -8.1395177541        0.0105343701       -0.3539486791
C                -9.5912588993        0.1785991677        0.1056561927
C               -10.6071390063       -0.0514070547       -1.0209344672
C               -12.0770171846       -0.0287801801       -0.5686495112
C               -12.5831808699        1.3028760112        0.0141077052
C               -12.5604314957        2.4744337923       -0.9747703181
C                -1.7086048307        0.4935474780        0.5086910855
N                -0.4817321733        0.8870563999        0.8192557507
C                 2.9435842304       -0.5092535183        1.0771515427
C                 4.2399765755       -0.1138196461        1.4012971606
H                13.6826264565        2.0622847892        0.5202702078
H                11.9228799079        2.2105538770        0.5643356112
H                12.6934697886        0.6959967738        1.0577386318
H                13.5699946500        0.3919524873       -1.3009497088
H                12.7349435852        1.8535202906       -1.7997650317
H                11.5416442834       -0.2634619055       -2.4286133619
H                11.3848545998       -0.6812381065       -0.7285793465
H                10.2102825372        1.8415092486       -2.0224187900
H                 9.9448495419        1.3416448169       -0.3600134868
H                 8.0285348759        0.8405268863       -1.9667415882
H                 9.0828722149       -0.2611064237       -2.8271068242
H                 9.3121830665       -1.6552544228       -0.7170254893
H                 7.7303374436       -1.6304070978       -1.4421716647
H                 7.6927274175       -1.4648923831        1.1013215626
H                 7.5433128687        1.4583041426        0.1843361102
H                 7.5632341282        1.4336767705        2.7899613505
H                 6.6227908099       -0.0658994606        2.7206469152
H                 3.6315492211        3.1531934571        2.1065370688
H                 1.3170357848        2.4325094881        1.5167740874
H                -1.0494250874       -2.7543607820       -0.1704770549
H                -3.3407804401       -3.1428214690        0.2741416895
H                -3.0675690436       -2.7339700709       -1.4366568840
H                -5.3878338337       -1.8173974638       -1.5926779632
H                -5.3569741198       -3.5279635049       -1.1747780102
H                -5.7032793077       -1.2485654528        0.8523868519
H                -5.7793770560       -2.9657943141        1.2293969107
H                -7.7733834280       -3.2287711588       -0.2613883343
H                -8.0599494139       -2.0979628997        1.0687031071
H                -7.4479064007        0.2703719347        0.4614602999
H                -7.9305403961        0.6921576781       -1.1872865223
H                -9.6946934104        1.1900039070        0.5228039980
H                -9.7951406586       -0.5153134819        0.9344003723
H               -10.3933074946       -1.0236126337       -1.4808572725
H               -10.4448850380        0.6967433945       -1.8099093125
H               -12.7106389798       -0.2993409852       -1.4256135133
H               -12.2270353248       -0.8199983515        0.1802978369
H               -11.9987475030        1.5664027877        0.9061745547
H               -13.6130273528        1.1546776368        0.3662098632
H               -13.1437045806        2.2424397039       -1.8748490284
H               -11.5417421112        2.7194438075       -1.2967288831
H               -12.9881116740        3.3780253002       -0.5253380875
H                -2.5070203060        1.2336993625        0.5487027514
H                 2.7503779343       -1.5357777118        0.7850881102
H                 5.0461703720       -0.8338216790        1.3398328230



