%chk=./calculation/no_transfer_pubchem_sampling_5_b3lyp/68485651.chk
%nprocshared=7
%mem=6GB
#p b3lyp/6-31g(d) opt SCF=XQC 

Gaussian input prepared by ASE

0 1
C                 9.0497413582       -1.8032930445        1.5938012815
N                 8.4313869324       -1.6895009432        0.2907213542
C                 6.9895648506       -1.8170938469        0.2998103380
C                 6.2644911642       -0.5554606832        0.8085409455
N                 6.6955806531        0.5882997660        0.0387506221
C                 5.9320595050        1.2743914392       -0.8429470071
O                 6.3964828433        2.0980069467       -1.6115935942
C                 4.4595595248        1.0059857177       -0.7953352159
C                 3.8217491816        0.4671787614       -1.9061129743
C                 2.4533620315        0.2807301797       -1.9027230651
C                 1.6877674134        0.6526215669       -0.7990879613
C                 0.2328897251        0.4606708547       -0.8051337680
C                -0.6195371021        1.4436887506       -0.2377370602
C                -1.9699612290        1.2958873562       -0.2502450281
N                -2.5234460911        0.1955986601       -0.8137052147
C                -3.8202415482       -0.2318365561       -0.9297033342
C                -5.0044732344        0.5206854708       -0.5654924054
C                -5.1150132506        1.8979607430       -0.7725212175
C                -6.2906037432        2.5241871019       -0.3958178440
N                -7.3248839469        1.8970386501        0.1267742796
C                -7.2545145111        0.5752380280        0.2944916429
C                -8.4476385381       -0.0701672150        0.8601730231
C                -8.7477675301       -1.4081090185        0.6146997664
C                -9.8799348737       -1.9821904369        1.1626301922
C               -10.7264316051       -1.2321775742        1.9619614537
C               -10.4417167970        0.1022760390        2.2028007865
C                -9.3138666648        0.6802667309        1.6537018566
C                -6.1061425458       -0.1437333601       -0.0275146846
C                -3.7329576032       -1.4872467236       -1.5143278853
N                -2.4649707636       -1.8327103246       -1.7656283087
C                -1.7230682082       -0.8227795268       -1.3377051154
C                -0.3342198878       -0.6704865785       -1.3443617109
C                 2.3309154342        1.2129218928        0.3034762394
C                 3.7014383809        1.3828566493        0.3083571631
C                 8.1335999040        0.7726580001        0.0389686491
C                 8.8225393945       -0.5079052607       -0.4549177029
H                 8.7621883166       -2.7582829104        2.0321945522
H                 8.7825816694       -1.0045358953        2.2993622541
H                10.1312379861       -1.7975573213        1.4642913602
H                 6.6703666499       -2.0083970759       -0.7301393565
H                 6.7109113358       -2.6758996168        0.9131751308
H                 5.1866953782       -0.6868573012        0.7156348145
H                 6.5086315743       -0.3844008396        1.8639079545
H                 4.4061707411        0.1986452424       -2.7734429114
H                 1.9660715572       -0.1316595081       -2.7735822682
H                -0.1916634364        2.3336929526        0.1939614934
H                -2.6392648154        2.0186558765        0.1902481202
H                -4.3225421322        2.4615432064       -1.2405688859
H                -6.4133930945        3.5924331350       -0.5255680019
H                -8.1097843135       -1.9995114355       -0.0252978464
H               -10.1053481202       -3.0196585386        0.9621570117
H               -11.6083280940       -1.6853840024        2.3904459718
H               -11.1032939551        0.6923561902        2.8201593546
H                -9.0814494259        1.7192593026        1.8278809732
H                -6.0456988368       -1.2037559556        0.1617458192
H                -4.5430300636       -2.1361072952       -1.7852957302
H                 0.2596659760       -1.4708800815       -1.7531123596
H                 1.7563431125        1.4964340172        1.1731538541
H                 4.1893336325        1.8178920441        1.1688762646
H                 8.3615377384        1.6105320947       -0.6210846775
H                 8.4587493846        1.0151316857        1.0566770253
H                 9.9061962320       -0.3946351361       -0.3985352293
H                 8.5453753805       -0.6735080461       -1.5007721836



