%chk=calculation/no_transfer_pubchem_sampling_5_b3lyp/82049565_rwf.chk
%rwf=calculation/no_transfer_pubchem_sampling_5_b3lyp/82049565_rwf.rwf
%nprocshared=14
%mem=3GB
#p b3lyp/6-31g(d) 6D 10F nosymm GFInput td=(50-50,nstate=2) SCF=XQC 

Gaussian input prepared by ASE

0 1
N                 0.0394011902        3.6343838369       -0.2897434775
C                 0.2748540802        2.5018322667       -0.1535169089
C                 0.6257974188        1.1363584504       -0.0122468551
C                -0.2381356796        0.0475474087        0.0681007358
C                -1.7005813836       -0.0410004377        0.0698249477
C                -2.3530862638       -1.0587442137       -0.6507953885
C                -3.7367514451       -1.1496670030       -0.6246110534
F                -4.3361969316       -2.1287541213       -1.3321669627
C                -4.5225929189       -0.2572595363        0.0970196080
C                -3.8894719366        0.7527419692        0.8191656946
C                -2.5032672836        0.8451120929        0.8040751844
F                -1.9193888252        1.8060616285        1.5413595449
N                 0.5263629547       -1.1018542571        0.0872007051
C                 1.8732971104       -0.7886790074        0.0556224871
C                 2.9991549585       -1.6172321128        0.0845592411
C                 4.2432151165       -1.0007027975        0.0229723534
C                 4.3634375512        0.4021103688       -0.0669547365
C                 3.2423487221        1.2206431621       -0.0914225995
C                 1.9749946172        0.6215816100       -0.0222992098
H                -1.7888364321       -1.7542798109       -1.2631300276
H                -5.6024426612       -0.3565982713        0.0865066175
H                -4.4549939169        1.4682268747        1.4061432841
H                 0.1466714504       -2.0194138724        0.2687570180
H                 2.9066572727       -2.6978240625        0.1493641996
H                 5.1407941981       -1.6121160776        0.0420102767
H                 5.3530385115        0.8470012847       -0.1165840712
H                 3.3357225259        2.3005256274       -0.1592486072



