%chk=./calculation/no_transfer_pubchem_sampling_5_b3lyp/86756387.chk
%nprocshared=7
%mem=6GB
#p b3lyp/6-31g(d) opt SCF=XQC 

Gaussian input prepared by ASE

0 1
C                12.2024674685        1.3027435961        0.0654065183
C                10.7134035223        1.0561983377        0.2689451210
C                10.2439123424       -0.1937722783       -0.4860762394
C                 8.7837914615       -0.4119803298       -0.3089695229
C                 8.2429128167       -1.5109754425        0.2131105587
C                 6.8029359049       -1.7230503123        0.4055101180
O                 6.3250705976       -2.7059669363        0.9119235082
O                 6.0737406106       -0.6839728826       -0.0751094300
C                 4.7020873476       -0.6466114979        0.0246959391
C                 4.0067955518        0.0896641499       -0.9366128178
N                 2.7009515716        0.2223338364       -0.9076736319
C                 2.0376636267       -0.3757140452        0.0864623647
C                 0.5856645789       -0.2383519958        0.1176961107
C                -0.1635630373       -0.8444651330        1.1227600477
C                -1.5383983048       -0.7158101483        1.1484039935
C                -2.2153110055        0.0130872471        0.1744789905
C                -3.7185077102        0.1948704435        0.1776687821
C                -4.0401112219        1.6877785150        0.3737111045
C                -5.5441626922        1.8659554975        0.6130319310
C                -6.3069285430        0.6218508884        0.1287798077
C                -7.8126419810        0.9453953990        0.1160160211
C                -8.8105317599       -0.2148535007        0.2006600611
C                -8.8686262839       -1.1228884082       -1.0222758247
C                -5.9531062990       -0.5247180725        1.0795508857
C                -4.4315224501       -0.5825230844        1.2915636876
C                -5.7688510507        0.2816063940       -1.2668609691
C                -4.3388273511       -0.2627116909       -1.1534432716
C                -1.4519831324        0.6273704630       -0.8195432447
C                -0.0798926213        0.5064422860       -0.8551334778
N                 2.6200260306       -1.0840593406        1.0528797893
C                 3.9291173557       -1.2240472742        1.0313289844
H                12.5188005624        2.1874694637        0.6124418749
H                12.7827938131        0.4543696400        0.4209767989
H                12.4255551651        1.4527830801       -0.9886961578
H                10.1480685571        1.9228763163       -0.0797972794
H                10.5053002275        0.9280132199        1.3330724382
H                10.8016473525       -1.0654923981       -0.1400510289
H                10.4518337775       -0.0542736030       -1.5511562543
H                 8.1427810760        0.4024182262       -0.6199840120
H                 8.8513055833       -2.3414302024        0.5421039637
H                 4.5334962577        0.5821698543       -1.7442044615
H                 0.3498428194       -1.4149748520        1.8805575244
H                -2.0801664794       -1.1936721860        1.9484784053
H                -3.7281012210        2.2420373844       -0.5117388277
H                -3.4684559502        2.0752887294        1.2193005949
H                -5.7456523526        2.0130608256        1.6758985912
H                -5.9065645650        2.7505092716        0.0855972157
H                -8.0149377603        1.5928935071        0.9743724684
H                -8.0292663335        1.5274353275       -0.7836915578
H                -8.6054210619       -0.8160215628        1.0873063009
H                -9.8000234283        0.2304822691        0.3375300261
H                -8.9654905998       -0.5350732881       -1.9326003682
H                -9.7307852167       -1.7833934162       -0.9508549714
H                -7.9812952709       -1.7450921562       -1.1000104520
H                -6.4561244815       -0.3799980586        2.0372010979
H                -6.3059737778       -1.4661224714        0.6576418790
H                -4.1682435758       -0.1477565855        2.2574098696
H                -4.1065833028       -1.6239184189        1.2877198301
H                -6.4041355746       -0.4491819111       -1.7619185514
H                -5.7818539690        1.1887966134       -1.8750301870
H                -4.3398282454       -1.3544835032       -1.1762607453
H                -3.7423955827        0.0757508454       -1.9999764376
H                -1.9372909530        1.2182531947       -1.5820093809
H                 0.4977884057        0.9845811434       -1.6303948843
H                 4.3618007616       -1.8071289785        1.8316887833



