%chk=./calculation/no_transfer_pubchem_sampling_5_b3lyp/867535.chk
%nprocshared=7
%mem=6GB
#p b3lyp/6-31g(d) opt SCF=XQC 

Gaussian input prepared by ASE

0 1
C                -1.3629164171       -2.4674906074       -0.0402782221
C                -2.2184321625       -1.2473377367        0.0965033647
C                -3.5890912878       -1.3540604016        0.2871623676
C                -4.3781159322       -0.2261024575        0.4117348260
C                -3.8030799412        1.0297711271        0.3385815446
C                -2.4388645655        1.1739307969        0.1352219880
C                -1.8137759713        2.5338231437        0.0231178630
C                -1.6515704385        0.0246142759        0.0277327345
N                -0.2507102731        0.1280593728       -0.1608034063
S                 0.3312881254       -0.0454454291       -1.7326656418
O                 0.7638077251        1.2429600889       -2.1982118528
O                -0.6139928095       -0.7703042511       -2.5256553614
C                 1.8108560290       -1.0853820311       -1.4635014452
C                 2.6112383751       -0.4360658627       -0.3957407850
C                 2.5640874380       -0.8988421193        0.9144247948
C                 3.2606235767       -0.2451737096        1.9153846508
C                 4.0058749425        0.8836453088        1.6194511157
C                 4.0545071841        1.3535889292        0.3172048532
C                 3.3628505693        0.6979681897       -0.6854899350
H                -0.4417531492       -2.3425478273        0.5253761723
H                -1.1086748059       -2.6095945234       -1.0896298074
H                -1.8904003391       -3.3486637723        0.3168110999
H                -4.0390640219       -2.3345792107        0.3396866148
H                -5.4429061179       -0.3240491004        0.5615094363
H                -4.4211466854        1.9115170096        0.4258741068
H                -1.1844988655        2.5935601516       -0.8652164569
H                -2.5833879936        3.2984487702       -0.0433539748
H                -1.1955899832        2.7506306545        0.8967878023
H                 0.1268482661        0.9901161091        0.2066909349
H                 1.4439686560       -2.0697109196       -1.1943155146
H                 2.3180437103       -1.1105277500       -2.4242071683
H                 1.9838799981       -1.7788476510        1.1500274659
H                 3.2203378563       -0.6169158803        2.9284913487
H                 4.5480742818        1.3947249832        2.4009218302
H                 4.6337634609        2.2338945339        0.0821178365
H                 3.3879195655        1.0703907961       -1.6977071800



