%chk=calculation/no_transfer_pubchem_sampling_5_b3lyp/91497183_rwf.chk
%rwf=calculation/no_transfer_pubchem_sampling_5_b3lyp/91497183_rwf.rwf
%nprocshared=14
%mem=3GB
#p b3lyp/6-31g(d) 6D 10F nosymm GFInput td=(50-50,nstate=2) SCF=XQC 

Gaussian input prepared by ASE

0 1
C                -4.9696661509       -0.2452772821        1.7701031640
C                -3.9456018419       -1.2483984722        1.2272387040
C                -2.5194686570       -0.6819898833        1.2427223210
C                -1.4653081802       -1.5968523256        0.5882957409
C                -1.1843940854       -2.9336866393        1.3420791165
C                -2.0114494667       -4.1534721813        0.8547217016
C                -2.1910906178       -5.0384902249        2.1197968237
C                -1.4149770559       -4.2828517255        3.2197487233
N                -1.4893441068       -2.8958596647        2.7708485823
N                -0.2036606869       -0.8575265642        0.2815033480
C                 0.4124822962       -1.2157072360       -0.9990151878
C                -0.1689011820       -0.5827342345       -2.2539477513
C                 0.4031310249       -1.1674413929       -3.5223542243
C                -1.0979101259        0.3891551233       -2.1919098810
C                -1.7484389571        1.1257192425       -3.2927132889
C                -1.0753771295        1.5352425312       -4.4580496550
C                -1.7412935784        2.2413033474       -5.4601977154
C                -3.0921194374        2.5622189493       -5.3196684859
C                -3.7701473180        2.1838140987       -4.1583923131
C                -3.1031929063        1.4832580663       -3.1563751199
C                 0.5271578656       -0.3286345829        1.3241455106
O                 0.2019219753       -0.5060697100        2.5025376978
C                 1.7377373969        0.5189275592        1.0308647272
C                 1.8363526876        1.3805558723       -0.0592211560
C                 2.9554942716        2.2113113017       -0.2133377254
O                 2.9632510384        2.9735839196       -1.3473839411
C                 3.4749499189        4.3052500474       -1.3154839780
C                 3.9980699385        2.1726223783        0.7280788692
O                 5.1391005828        2.9041940689        0.5088406102
C                 5.4676182577        3.9034042620        1.4813112553
C                 3.8878499129        1.2932154199        1.8335605117
O                 4.9590559821        1.2841445568        2.6827949824
C                 4.9266901575        0.3933649290        3.7888779950
C                 2.7609930252        0.4927625273        1.9916113642
H                -4.7343191699        0.0356058735        2.8037255157
H                -5.9827078534       -0.6640223462        1.7608760844
H                -4.9837816731        0.6753417434        1.1727687916
H                -3.9738447969       -2.1590537166        1.8346866740
H                -4.2255794242       -1.5342682032        0.2021134900
H                -2.5111297840        0.2732200191        0.6999546447
H                -2.2279904566       -0.4639406704        2.2715438269
H                -1.8461818474       -1.8612622801       -0.4046815711
H                -0.1162959293       -3.1735134128        1.1678009413
H                -1.4913792900       -4.6773929908        0.0453249070
H                -2.9812989924       -3.8353923567        0.4612078131
H                -1.8140245393       -6.0565933242        1.9813796404
H                -3.2496653758       -5.1146627239        2.3870274882
H                -0.3763001439       -4.6644457974        3.2717379323
H                -1.8589658779       -4.3972590180        4.2150446364
H                -0.8530885597       -2.2639770346        3.2512263867
H                 1.4828499640       -0.9912365080       -0.9537283638
H                 0.3502600230       -2.3108829337       -1.1072441752
H                 1.4085549868       -0.7744112675       -3.7299597569
H                 0.5074171700       -2.2566109754       -3.4305738029
H                -0.2237683823       -0.9585829280       -4.3919643101
H                -1.4479102823        0.6615456199       -1.1978770751
H                -0.0148492148        1.3316834661       -4.5642596795
H                -1.1975090777        2.5516070020       -6.3488364521
H                -3.6087659421        3.1131738779       -6.1009672382
H                -4.8191434041        2.4387510266       -4.0314978782
H                -3.6364896365        1.1952497727       -2.2533145213
H                 1.0512370349        1.4558162244       -0.8026972545
H                 3.0458345802        4.8040569410       -2.1884650104
H                 4.5652278904        4.3217500191       -1.3771057668
H                 3.1513656467        4.8324640495       -0.4089838779
H                 6.3631245089        4.4020761410        1.1034134901
H                 5.6755911514        3.4576580621        2.4562564219
H                 4.6563198052        4.6373310950        1.5765432282
H                 5.8752871437        0.5337342675        4.3102687387
H                 4.8423007494       -0.6499748949        3.4596065028
H                 4.0976760424        0.6245813935        4.4697076149
H                 2.6424271089       -0.1572192937        2.8483076395



