%chk=./calculation/no_transfer_pubchem_sampling_5_b3lyp/91497183.chk
%nprocshared=7
%mem=6GB
#p b3lyp/6-31g(d) opt SCF=XQC 

Gaussian input prepared by ASE

0 1
C                -5.2414247260       -0.7216028942        1.5646265908
C                -4.0928401547       -1.6642908247        1.2274783370
C                -2.7656137580       -0.9148609612        1.1780865443
C                -1.5983189214       -1.8077518167        0.7429784271
C                -1.2556249055       -2.9187196255        1.7655206750
C                -1.8654331117       -4.2989398001        1.4444179323
C                -2.2197896426       -4.8982420106        2.8165711010
C                -1.6573526266       -3.8843849137        3.8199209076
N                -1.7548484174       -2.6388044507        3.0948857485
N                -0.4072858538       -1.0070895458        0.4469397820
C                 0.3307379149       -1.3052893252       -0.7668402632
C                 0.0817183866       -0.3684356418       -1.9304420672
C                 1.2445488559       -0.2561669702       -2.8673953598
C                -1.0870441022        0.2452010139       -2.1005622232
C                -1.4276854133        1.1998774837       -3.1564683234
C                -0.5752494711        2.2470786427       -3.5021756079
C                -0.9340425495        3.1416129597       -4.4941624826
C                -2.1426862142        3.0069452615       -5.1562473548
C                -3.0052514019        1.9811157300       -4.8061376321
C                -2.6552073131        1.0918459801       -3.8082665032
C                 0.1378984454       -0.2207191829        1.4053236525
O                -0.2829059580       -0.1470887281        2.5463705996
C                 1.3270609374        0.5850094699        0.9721869056
C                 1.1807786102        1.6287647686        0.0844112996
C                 2.2779884840        2.4050509699       -0.2993496656
O                 1.9678977917        3.3564827334       -1.2202759711
C                 2.8884760747        4.3570228955       -1.5969969968
C                 3.5413758633        2.1270701459        0.2342768447
O                 4.6477184400        2.8436878828       -0.1823991407
C                 5.3585363028        3.5476335893        0.8181881659
C                 3.6753342095        1.0673393957        1.1561125850
O                 4.9384788771        0.8379502428        1.6212137174
C                 5.1366383841       -0.2006155374        2.5489460027
C                 2.5729120589        0.3129507986        1.5245196353
H                -5.0694173189       -0.2494766728        2.5285757646
H                -6.1827334067       -1.2648086967        1.6102203486
H                -5.3330905596        0.0601336700        0.8128559331
H                -4.0268707050       -2.4395472255        1.9891055633
H                -4.2867357737       -2.1389619176        0.2611770556
H                -2.8441812094       -0.0845083551        0.4712705800
H                -2.5526767644       -0.4972695051        2.1588806546
H                -1.8733741566       -2.2890853782       -0.2017643226
H                -0.1509779046       -3.0273804330        1.7641328547
H                -1.1517600797       -4.9195306023        0.9031214792
H                -2.7559454987       -4.1922766769        0.8284750986
H                -1.7927862841       -5.8891774871        2.9598478021
H                -3.3002025686       -4.9705413430        2.9306557054
H                -0.6169768170       -4.1519539629        4.0802361466
H                -2.2402436077       -3.8316868296        4.7408153484
H                -1.2596057594       -1.8642654780        3.5237841327
H                 1.4023585324       -1.2880734261       -0.5432254307
H                 0.0806989773       -2.3289140703       -1.0706073215
H                 2.0212439780        0.3725088626       -2.4319509341
H                 1.6744686922       -1.2424123441       -3.0417260077
H                 0.9423458548        0.1698708227       -3.8196094082
H                -1.8900933955        0.0322061326       -1.4077013277
H                 0.3518890196        2.3804648225       -2.9665879196
H                -0.2665317630        3.9519298251       -4.7500235211
H                -2.4172976289        3.7042486497       -5.9342261503
H                -3.9556414407        1.8782092362       -5.3099616153
H                -3.3307935498        0.2933178407       -3.5347631799
H                 0.2191159222        1.8785174302       -0.3311711250
H                 2.3437549736        4.9873097439       -2.3004369660
H                 3.7696945903        3.9356836499       -2.0839205757
H                 3.1998062273        4.9611993914       -0.7413139664
H                 6.0789600938        4.1656844253        0.2840952904
H                 5.8854254538        2.8712679078        1.4930572794
H                 4.6876572211        4.1888215924        1.4005985389
H                 6.2004696826       -0.1841970816        2.7820334986
H                 4.8766126175       -1.1748731439        2.1234608269
H                 4.5618834323       -0.0368015409        3.4656913579
H                 2.6620548276       -0.4952695672        2.2316396502



