%chk=./calculation/no_transfer_pubchem_sampling_5_b3lyp/92077602.chk
%nprocshared=7
%mem=6GB
#p b3lyp/6-31g(d) opt SCF=XQC 

Gaussian input prepared by ASE

0 1
C                 7.4355369923       -0.7179820230       -0.1414947092
C                 6.0585623555       -0.1291437713       -0.0833708825
C                 5.4130238726        0.2866897983       -1.2400066908
C                 4.1335575130        0.8075362448       -1.1789070175
C                 3.4783445687        0.9235039732        0.0384382867
C                 2.1102740980        1.5339102175        0.0880243647
O                 1.9016400647        2.6760953215        0.4552851484
N                 1.1171667601        0.7167049349       -0.3163488637
C                 1.2566248814       -0.6660386861       -0.7287989929
C                -0.1616422244       -1.2152254843       -0.6346064654
C                -1.0166956676        0.0117881006       -1.0272777009
N                -2.4290781545       -0.0093969423       -0.7381703451
C                -3.2416095060       -0.7450963135       -1.6862193554
C                -4.6583511719       -0.1789606619       -1.6418652259
C                -5.1755386545       -0.1294888946       -0.2332984145
C                -6.5366047915       -0.0023973176        0.0156663475
C                -7.0181803979        0.0651774390        1.3090659606
C                -6.1349130655        0.0065332468        2.3744168430
C                -4.7798115246       -0.1185807152        2.1350415956
C                -4.2891718605       -0.1853266265        0.8366657383
C                -2.8112910183       -0.3664547062        0.6114063817
C                -0.2627579894        1.1637329364       -0.3478680289
C                 4.1148589157        0.5214103965        1.2135728677
C                 3.4125814451        0.6515724443        2.5306043784
C                 5.3951411582       -0.0047023978        1.1305394696
H                 7.3734257690       -1.8033184315       -0.2315315898
H                 7.9830530285       -0.3396504079       -1.0014045862
H                 7.9939861750       -0.4879585181        0.7629283466
H                 5.9156361656        0.2066781563       -2.1931160999
H                 3.6419939691        1.1421055718       -2.0814488000
H                 1.6271178902       -0.7229937182       -1.7606659593
H                 1.9639988830       -1.1948262938       -0.0852481238
H                -0.3254452483       -2.0677460114       -1.2908566233
H                -0.3782796620       -1.5088360800        0.3923271260
H                -0.9257615538        0.1495584709       -2.1111114852
H                -2.8298790993       -0.6236288642       -2.6903943675
H                -3.2649276692       -1.8244523164       -1.4533527340
H                -4.6418570009        0.8385547867       -2.0423940835
H                -5.3240164146       -0.7760431294       -2.2688569517
H                -7.2220269847        0.0426013347       -0.8190218863
H                -8.0787936360        0.1630272775        1.4874169851
H                -6.5019245727        0.0594261084        3.3886520469
H                -4.0880856972       -0.1650402274        2.9646480448
H                -2.5726504298       -1.4255614833        0.8386881882
H                -2.2630177542        0.2569049923        1.3206970683
H                -0.6196854616        1.3440445395        0.6706218861
H                -0.3459072483        2.1039995541       -0.8963232860
H                 2.5794566237       -0.0501387610        2.5894613894
H                 4.0918292574        0.4516715032        3.3555183635
H                 3.0069959924        1.6557650056        2.6376292257
H                 5.8930970801       -0.3200065724        2.0373582162



