%chk=calculation/no_transfer_pubchem_sampling_5_b3lyp/92077602_rwf.chk
%rwf=calculation/no_transfer_pubchem_sampling_5_b3lyp/92077602_rwf.rwf
%nprocshared=14
%mem=3GB
#p b3lyp/6-31g(d) 6D 10F nosymm GFInput td=(50-50,nstate=2) SCF=XQC 

Gaussian input prepared by ASE

0 1
C                 7.6045596665       -0.5908401912       -0.0792183407
C                 6.1735800537       -0.1122137461       -0.0052253877
C                 5.4071635721        0.0663497137       -1.1599694331
C                 4.0783039135        0.4760156402       -1.0657857946
C                 3.4841198437        0.7329609841        0.1750954662
C                 2.0784070063        1.2692461471        0.2359200175
O                 1.7999875306        2.2786013525        0.8845532196
N                 1.1159880491        0.6149106293       -0.4882506347
C                 1.1784260099       -0.7610424376       -1.0142682726
C                -0.2653151378       -1.2577607674       -0.8810910850
C                -1.0868049328        0.0304361987       -1.1525202600
N                -2.5077052178        0.0644816435       -0.8223787959
C                -3.3667857407       -0.6220804707       -1.7869746170
C                -4.7966218230       -0.0919942544       -1.6603487653
C                -5.2723157992       -0.0939988208       -0.2226252638
C                -6.6362944586        0.0011161609        0.0839181943
C                -7.0783257831        0.0195411841        1.4044216537
C                -6.1491645391       -0.0585640878        2.4449433257
C                -4.7916090722       -0.1542438700        2.1495283750
C                -4.3414046964       -0.1720624931        0.8233912619
C                -2.8568923400       -0.3233157304        0.5422123299
C                -0.2605370433        1.1242287090       -0.4443069408
C                 4.2475230714        0.5831894156        1.3544809480
C                 3.6781093831        0.8794337756        2.7230144783
C                 5.5710576118        0.1511279211        1.2326077750
H                 7.6776461523       -1.6632659455        0.1461813821
H                 8.0271007770       -0.4367741990       -1.0773803924
H                 8.2408176786       -0.0666712730        0.6426724881
H                 5.8494209854       -0.1125687196       -2.1372579836
H                 3.4990344181        0.6235463498       -1.9733173439
H                 1.4925988037       -0.7661602614       -2.0677648274
H                 1.8998567764       -1.3592239918       -0.4530034439
H                -0.4948025198       -2.0711723425       -1.5765719736
H                -0.4413942945       -1.6204729410        0.1379410505
H                -1.0292302519        0.2272857583       -2.2311095641
H                -2.9883288054       -0.4274657091       -2.7963537601
H                -3.3591983013       -1.7208114026       -1.6433224756
H                -4.8234039279        0.9340733693       -2.0522247223
H                -5.4736354337       -0.6882819361       -2.2858941346
H                -7.3576096611        0.0604940710       -0.7288870128
H                -8.1405644281        0.0931148150        1.6221040417
H                -6.4808736818       -0.0418521727        3.4796810331
H                -4.0658188426       -0.2139274024        2.9585764343
H                -2.5729578030       -1.3740302118        0.7567284199
H                -2.2944584868        0.2969844647        1.2481381794
H                -0.5641648393        1.2805757396        0.5968968256
H                -0.3398506611        2.0929995965       -0.9465413763
H                 2.7342191756        0.3494124920        2.8951536451
H                 4.3825575986        0.5824454799        3.5063239142
H                 3.4561097727        1.9450003758        2.8291929191
H                 6.1594796721        0.0232203896        2.1396302236



