%chk=calculation/no_transfer_pubchem_sampling_5_b3lyp/9266817_rwf.chk
%rwf=calculation/no_transfer_pubchem_sampling_5_b3lyp/9266817_rwf.rwf
%nprocshared=14
%mem=3GB
#p b3lyp/6-31g(d) 6D 10F nosymm GFInput td=(50-50,nstate=2) SCF=XQC 

Gaussian input prepared by ASE

0 1
O                 1.2486471661        2.1429328023       -1.5394871011
C                 1.4749997082        1.1637876927       -0.8327232044
N                 0.4763177159        0.3993401066       -0.2853753860
C                -0.9321963227        0.7095287655       -0.4589577857
C                -1.6388425113        1.3131380090        0.7967151729
C                -2.8900861348        0.4366461510        0.9993410648
N                -3.1051766513       -0.1758554016       -0.3157793571
C                -4.0722495875       -1.2636782136       -0.3381556097
C                -5.4941577098       -0.7998615232       -0.0784582738
C                -6.3365396850       -1.5195540495        0.7752105455
C                -7.6592578984       -1.1195540460        0.9791117525
C                -8.1530728294        0.0146508107        0.3345008626
C                -7.3168077978        0.7447207090       -0.5144706927
C                -5.9988708667        0.3392379017       -0.7207586934
C                -1.7748674247       -0.5388082354       -0.7843990533
C                 2.8806491505        0.7332576070       -0.5207076293
C                 3.2359735129       -0.5609954503       -0.1142686871
C                 4.5609731878       -0.8947166694        0.1456274642
C                 5.5599588017        0.0761223442        0.0071591380
N                 6.9069611431       -0.2698318587        0.2728769372
C                 8.0444960010        0.3902676564       -0.1084880234
C                 9.1108430746       -0.3337104830        0.3739798419
C                 8.5185268070       -1.4324300857        1.0408227498
N                 7.1929967814       -1.3973805547        0.9797769504
C                 5.2202949982        1.3736146131       -0.3982338021
C                 3.8943490970        1.6874835847       -0.6714798499
H                 0.7229782019       -0.2678237346        0.4326352427
H                -0.9736613370        1.4192997058       -1.2849687305
H                -0.9809530879        1.2900813416        1.6713740334
H                -1.9034575965        2.3587912825        0.6161021736
H                -3.7741539183        0.9996134560        1.3111788137
H                -2.6995742593       -0.3362540066        1.7716157957
H                -3.8077363353       -2.0597693026        0.3876057529
H                -4.0187925383       -1.7246421281       -1.3345072550
H                -5.9541081896       -2.4009303213        1.2859725709
H                -8.2995975989       -1.6907950521        1.6463756445
H                -9.1805993372        0.3307594645        0.4942184736
H                -7.6935134808        1.6315733674       -1.0178896455
H                -5.3414328638        0.9083806281       -1.3719298829
H                -1.3641372572       -1.4191780790       -0.2424522633
H                -1.7820691382       -0.7831707805       -1.8520416952
H                 2.4836258653       -1.3412641089       -0.0361700665
H                 4.8398290389       -1.8962356462        0.4484442557
H                 8.0091506899        1.2900573927       -0.7029070586
H                10.1605477042       -0.1078668161        0.2557579023
H                 9.0047458468       -2.2452652780        1.5645835077
H                 5.9807687373        2.1423935870       -0.4845442900
H                 3.6182781280        2.6838948457       -0.9994746100



