%chk=./calculation/no_transfer_pubchem_sampling_5_b3lyp/9266817.chk
%nprocshared=7
%mem=6GB
#p b3lyp/6-31g(d) opt SCF=XQC 

Gaussian input prepared by ASE

0 1
O                 1.4030693284        2.2362616030       -2.1459157487
C                 1.4569726488        1.3988800975       -1.2663138106
N                 0.3547872468        0.8991300620       -0.6581029948
C                -0.9855961791        1.3051502017       -1.0066252661
C                -1.7589355030        1.8460422636        0.2101605931
C                -2.6726411281        0.6887289569        0.5945630869
N                -3.0489627580        0.1467597082       -0.6963139259
C                -3.7539384974       -1.1152943033       -0.6363056795
C                -5.0928775592       -0.9477781738        0.0292679484
C                -5.5147166164       -1.8102380210        1.0302069799
C                -6.7531979131       -1.6422994947        1.6265829732
C                -7.5785159451       -0.6045184610        1.2317449663
C                -7.1616840945        0.2639509510        0.2357736340
C                -5.9281336905        0.0914718147       -0.3635451962
C                -1.8324522211        0.1089067455       -1.4873285185
C                 2.7530097844        0.8561516146       -0.7620820921
C                 2.9026294616       -0.4393586249       -0.2732617969
C                 4.1343026240       -0.8858053502        0.1577484573
C                 5.2442249680       -0.0430882579        0.1132095136
N                 6.4688329650       -0.5307524066        0.5686262640
C                 7.6886599673        0.0659446806        0.5346535053
C                 8.5800197621       -0.8090828455        1.0978346466
C                 7.8026549141       -1.9264186351        1.4503665485
N                 6.5437980378       -1.7445553581        1.1264889421
C                 5.1044184482        1.2494540473       -0.3863572743
C                 3.8703958546        1.6833779471       -0.8256305012
H                 0.4571188581        0.2508103921        0.1061328490
H                -0.8690444210        2.0611306571       -1.7857293874
H                -1.0891525414        2.1458821911        1.0142994695
H                -2.3591274626        2.7043785078       -0.0855021917
H                -3.5608570439        1.0056884700        1.1420487682
H                -2.1309879537       -0.0535054821        1.2111427345
H                -3.1656467647       -1.8905810329       -0.1080988393
H                -3.9056739567       -1.4548005586       -1.6670930757
H                -4.8727272585       -2.6212301919        1.3455112190
H                -7.0716884166       -2.3219718173        2.4036321162
H                -8.5432275807       -0.4716249984        1.6989654052
H                -7.8026651606        1.0762716042       -0.0747081393
H                -5.5913785260        0.7652729242       -1.1364699471
H                -1.2648629618       -0.8252124074       -1.3246416495
H                -2.0809903548        0.1734416239       -2.5480927205
H                 2.0654589228       -1.1222716442       -0.2560502532
H                 4.2674530128       -1.8876228633        0.5332750772
H                 7.8463228242        1.0395043018        0.1199398744
H                 9.6324997938       -0.6734402111        1.2375103025
H                 8.1151727615       -2.8376351835        1.9201926267
H                 5.9483093496        1.9186080654       -0.4361207548
H                 3.7495699747        2.6778888916       -1.2272307384



