%chk=./calculation/no_transfer_pubchem_sampling_5_b3lyp/97840923.chk
%nprocshared=7
%mem=6GB
#p b3lyp/6-31g(d) opt SCF=XQC 

Gaussian input prepared by ASE

0 1
C                 7.5773997700        0.0686615557        0.4825426391
C                 6.2157356077       -0.5139375387        0.3728984235
C                 5.7173317112       -1.7282364164        0.7629514212
C                 4.3556496143       -1.7326429232        0.4046077229
C                 4.1124568706       -0.5127439520       -0.1841084346
C                 2.9102318403        0.0226378516       -0.7348907302
N                 2.7669907317        1.1884119260       -1.2695695174
C                 1.5083033584        1.3987677432       -1.6973119023
C                 0.6240578238        0.3759322067       -1.5100422730
C                -0.8355547450        0.3632060472       -1.8453226274
N                -1.6910654716        0.4771323752       -0.6893971278
C                -1.6704474710        1.7428289369        0.0072173979
C                -2.8563549405        2.6299411328       -0.3665781212
C                -4.1482342565        1.8158025520       -0.3424720083
C                -4.2340238679        0.8657875143        0.8573406556
O                -3.8259441714        1.5581296159        2.0312771248
C                -3.4858577898       -0.4446132358        0.6616709201
C                -4.0449539750       -1.5620688843        1.2693870945
C                -3.5290600068       -2.8327469666        1.1000851494
C                -2.4261584339       -2.9982948222        0.2814046173
C                -1.8346287301       -1.9036358736       -0.3112914371
C                -2.3236252079       -0.6049293000       -0.1194347529
S                 1.4345594844       -0.9428546883       -0.7237654730
O                 5.2479975316        0.2225024373       -0.1996188857
H                 7.9639629659        0.3141474818       -0.5057477422
H                 7.5490293491        0.9879552512        1.0660787442
H                 8.2446911152       -0.6404147182        0.9626990801
H                 6.2578296800       -2.5168794911        1.2449218035
H                 3.6435003901       -2.5185506243        0.5548380850
H                 1.2739351069        2.3384322693       -2.1658620735
H                -1.0312074579        1.2213109561       -2.5013552356
H                -1.0962976596       -0.5449445842       -2.3937958799
H                -1.7018480444        1.5542691892        1.0830606880
H                -0.7285686651        2.2519148579       -0.2168622821
H                -2.7215198167        3.0603502697       -1.3608491676
H                -2.9205944151        3.4427798956        0.3557182508
H                -4.9985303626        2.4986213523       -0.3118447101
H                -4.2315013306        1.2114579960       -1.2474483590
H                -5.2984540830        0.5931373475        0.9741504240
H                -3.8793881803        0.9452007451        2.7721320163
H                -4.9329232571       -1.4321219471        1.8751656124
H                -3.9908791579       -3.6790519217        1.5846814455
H                -2.0128695179       -3.9821698084        0.1148564164
H                -0.9531739361       -2.0584828103       -0.9139249915



