%chk=./calculation/no_transfer_pubchem_sampling_5_b3lyp/99998934.chk
%nprocshared=7
%mem=6GB
#p b3lyp/6-31g(d) opt SCF=XQC 

Gaussian input prepared by ASE

0 1
C                 4.1444259601       -3.6120449251       -3.6055757436
O                 4.1670769629       -2.4096883121       -2.8776115330
C                 2.9824960243       -1.8983228942       -2.4067360781
C                 1.7666019358       -2.5476420670       -2.5686611290
C                 0.5929614439       -2.0153937868       -2.0555961988
C                 0.6171999317       -0.8271540970       -1.3671316027
C                 1.8216087148       -0.1372864695       -1.1908400965
C                 1.8847785349        1.1188404573       -0.4924067998
C                 0.9182761760        1.7809479954        0.1745080346
O                -0.3848066287        1.3675144735        0.3501608795
C                -1.0073304518        2.2909198663        1.1247900807
C                -0.1650686019        3.3564882905        1.4703547112
C                -0.6283704981        4.4083924240        2.2468551006
C                -1.9422198715        4.3812806425        2.6638530228
C                -2.7697342203        3.3102721840        2.3196693523
C                -2.3250353860        2.2286712112        1.5568720417
C                -3.2855455415        1.1085244317        1.2505733119
C                -2.6166240323       -0.2267665967        1.0408100295
C                -2.9997453880       -1.0459278433       -0.0128405408
C                -2.4241794028       -2.2872993666       -0.1939969540
C                -1.4329335790       -2.7270658049        0.6769422617
O                -0.8728578779       -3.9454224178        0.4552708283
C                -1.0495209368       -1.9165580104        1.7386211799
C                -1.6461021741       -0.6843387667        1.9219730621
C                -4.2721399864        1.0109296982        2.4245346249
C                -4.9074184103        2.3472088765        2.7233201742
O                -6.0655792859        2.5083652819        2.9823868892
O                -4.0761518013        3.4108293038        2.7280043454
C                 1.1383321905        3.0740344911        0.8645173113
O                 2.1692175651        3.7149400657        0.9037496884
C                 3.0227193144       -0.6684538487       -1.7203637655
O                 4.1324899591        0.0710434385       -1.4741722392
C                 5.3434730172       -0.1304937963       -2.1694086456
H                 3.5307532439       -3.5275848873       -4.5080521780
H                 3.7864803160       -4.4479982684       -2.9961290282
H                 5.1794312076       -3.7949636020       -3.8913047868
H                 1.7235248865       -3.4882151226       -3.0928660091
H                -0.3338725903       -2.5478107274       -2.1943078491
H                -0.2891376121       -0.4124906595       -0.9619243978
H                 2.8453798133        1.6161870529       -0.4848306373
H                 0.0307818776        5.2212758347        2.5047355959
H                -2.3635112468        5.1772120899        3.2557698459
H                -3.8442937685        1.3673407457        0.3408548102
H                -3.7592129051       -0.7098575681       -0.7037979380
H                -2.7268268774       -2.9284915731       -1.0063629000
H                -0.1921578398       -4.1174683995        1.1166040611
H                -0.2811572063       -2.2530644828        2.4219693760
H                -1.3385449129       -0.0682821212        2.7550355665
H                -3.7342057438        0.6906101407        3.3225683331
H                -5.0596846735        0.2859217732        2.2206205051
H                 5.1924907252       -0.1309956191       -3.2505658328
H                 5.9691744410        0.7177938932       -1.8909932872
H                 5.8342952094       -1.0584646279       -1.8714098533



