%chk=calculation/no_transfer_pubchem_sampling_5_b3lyp/99998934_rwf.chk
%rwf=calculation/no_transfer_pubchem_sampling_5_b3lyp/99998934_rwf.rwf
%nprocshared=14
%mem=3GB
#p b3lyp/6-31g(d) 6D 10F nosymm GFInput td=(50-50,nstate=2) SCF=XQC 

Gaussian input prepared by ASE

0 1
C                 4.4884267737       -3.6006528284       -3.5760374650
O                 4.4013721322       -2.3419541235       -2.9267061195
C                 3.2134899244       -1.9984059793       -2.3454676366
C                 2.0612784920       -2.7862179075       -2.3665175262
C                 0.9008358650       -2.3431233979       -1.7196115475
C                 0.8752904462       -1.1273186259       -1.0556215845
C                 2.0271617189       -0.3092102824       -1.0222749363
C                 2.0854236144        0.9651957369       -0.3256234859
C                 1.1372672670        1.6615909160        0.3299475556
O                -0.1971101991        1.2811799815        0.4723660460
C                -0.8305319143        2.2550445735        1.2112956418
C                 0.0361369342        3.2929790418        1.5706493923
C                -0.4260105907        4.3897111223        2.2973308373
C                -1.7684782013        4.4267120691        2.6430007415
C                -2.6143129068        3.3715987753        2.2642503429
C                -2.1841841291        2.2306251259        1.5604150147
C                -3.2029915902        1.1650476328        1.1847569556
C                -2.6905522146       -0.2604780586        1.0393047904
C                -3.0733195523       -1.0304883796       -0.0659012274
C                -2.6946918348       -2.3648265883       -0.1906504319
C                -1.9091446975       -2.9559374587        0.8028868660
O                -1.5459181036       -4.2621689721        0.6247012138
C                -1.5218412691       -2.2050005696        1.9184692997
C                -1.9155460470       -0.8734292089        2.0310649087
C                -4.3352943735        1.1881358006        2.2393694422
C                -4.8821770936        2.5674223125        2.5111752018
O                -6.0359079940        2.8445227319        2.7010043986
O                -3.9436436314        3.5734107817        2.5876744108
C                 1.3586390679        2.9660855764        1.0194253156
O                 2.4075379707        3.5928746304        1.0886847492
C                 3.1973399428       -0.7557936823       -1.6759486372
O                 4.3414721148       -0.0033799271       -1.5959427963
C                 4.7598731587        0.6355480331       -2.8080556696
H                 3.7922352014       -3.6693170887       -4.4225005817
H                 4.2923101135       -4.4264703693       -2.8798145974
H                 5.5130578971       -3.6751317552       -3.9444619337
H                 2.0593558283       -3.7444214460       -2.8735141468
H                 0.0150799939       -2.9710486388       -1.7282590741
H                -0.0270522919       -0.7995345534       -0.5566723251
H                 3.0533978917        1.4578324605       -0.3082757371
H                 0.2547310968        5.1906086643        2.5686888020
H                -2.2011565100        5.2580171977        3.1884514666
H                -3.6430165660        1.4525139800        0.2182963964
H                -3.6801627611       -0.5796916243       -0.8479750496
H                -2.9949059144       -2.9572256115       -1.0492385169
H                -0.9771324903       -4.5363065217        1.3610108860
H                -0.9062521093       -2.6580157078        2.6933889079
H                -1.5967458451       -0.3028017358        2.8999956263
H                -3.9441487200        0.7977481235        3.1892799665
H                -5.1675588259        0.5476155053        1.9416454028
H                 3.9820073907        1.3171767905       -3.1754505441
H                 5.6524016175        1.2094722836       -2.5503856576
H                 5.0036659229       -0.1003208043       -3.5795843512



