%chk=calculation/no_transfer_pubchem_sampling_4_b3lyp/100182640_rwf.chk
%rwf=calculation/no_transfer_pubchem_sampling_4_b3lyp/100182640_rwf.rwf
%nprocshared=14
%mem=3GB
#p b3lyp/6-31g(d) 6D 10F nosymm GFInput td=(50-50,nstate=2) SCF=XQC 

Gaussian input prepared by ASE

0 1
C                -0.4224756615       -4.3184547690       -0.3716640469
C                -1.6446071552       -3.8843801569       -1.1861999975
C                -2.7784713752       -3.2849558708       -0.3415026397
N                -2.4120656651       -2.0539087716        0.3581825599
C                -2.5379948373       -0.8215125227       -0.2215405150
O                -2.9844702807       -0.6605563040       -1.3489779782
C                -2.0785034312        0.3607750316        0.6683424597
C                -3.0764646861        0.6828118742        1.8290674308
C                -4.5560060774        0.8799911334        1.5425230855
C                -5.1584849530        2.1250876453        1.7679373254
C                -6.5278888780        2.3077068042        1.5668419914
C                -7.3218441181        1.2433940789        1.1403038627
C                -6.7372259076       -0.0062378101        0.9251151981
C                -5.3700082529       -0.1868669221        1.1308101924
N                -1.6872390106        1.5068835567       -0.1507813183
C                -2.7130571557        2.3567823279       -0.7718969965
C                -2.8612865528        3.7461921767       -0.1694046001
C                -3.9124075525        4.5568392418       -0.6214724025
C                -4.0955836143        5.8421857365       -0.1149445330
C                -3.2282135509        6.3420398687        0.8600766126
C                -2.1782841312        5.5449374697        1.3146103434
C                -1.9956317218        4.2580649737        0.8004813413
C                -0.4142882831        1.6210969639       -0.6812315855
O                -0.1411125120        2.5049744730       -1.4849065688
C                 0.6601316454        0.6243157478       -0.2293331603
C                 2.0012893452        0.8829134085       -0.9386458004
C                 3.0593828456       -0.1078233193       -0.5073467199
C                 3.8920921293        0.1626163556        0.5904990063
C                 4.8388150586       -0.7617782567        1.0225265432
C                 4.9601906998       -1.9762015177        0.3429751743
S                 6.1554196887       -3.1842074633        0.9099619060
O                 5.9075322672       -4.4286951492        0.1710801118
O                 6.1877263437       -3.1673441794        2.3772110320
N                 7.6472165946       -2.5005850600        0.4539541373
C                 8.1522354383       -2.8206459162       -0.8632274819
C                 7.7828919754       -1.9004848767       -2.0005914384
C                 9.1782045149       -1.8737324881       -1.4325713009
C                 4.1474125612       -2.2740500383       -0.7501951205
C                 3.2041356213       -1.3354852579       -1.1681615379
H                 0.3434444398       -4.7631727038       -1.0157713129
H                 0.0417315846       -3.4693266675        0.1444638331
H                -0.6908656940       -5.0660199868        0.3857856003
H                -2.0537187212       -4.7482295597       -1.7271865072
H                -1.3553922557       -3.1482678568       -1.9458984184
H                -3.1167077442       -4.0076592605        0.4110358423
H                -3.6284657837       -3.0407218938       -0.9835427100
H                -1.9467800354       -2.1295829465        1.2518433684
H                -1.1754155208        0.0366612591        1.1909771168
H                -2.9760742826       -0.1462900502        2.5425911501
H                -2.6837080743        1.5696367247        2.3374310967
H                -4.5494306357        2.9618130190        2.0973279097
H                -6.9702089974        3.2841702409        1.7450224122
H                -8.3880505125        1.3829800599        0.9830774456
H                -7.3476047121       -0.8457633698        0.6028059988
H                -4.9355303415       -1.1708336975        0.9807541011
H                -2.4528448250        2.4577873612       -1.8295042272
H                -3.6634221605        1.8237974583       -0.7263344667
H                -4.5959387725        4.1728324057       -1.3761260209
H                -4.9172192044        6.4537588437       -0.4792582942
H                -3.3692291604        7.3434970274        1.2579086513
H                -1.4926178744        5.9248170440        2.0680086526
H                -1.1704470190        3.6481258624        1.1543880474
H                 0.8019037878        0.6902496992        0.8584038956
H                 0.3299512516       -0.4029824053       -0.4311490464
H                 1.8432524243        0.8297199584       -2.0202075092
H                 2.3231115148        1.9071865277       -0.7273560221
H                 3.7960161117        1.1120713119        1.1120889328
H                 5.4725976787       -0.5516227839        1.8778308583
H                 8.2998566532       -2.7103171858        1.2094487348
H                 8.2573049499       -3.8791962785       -1.0945079320
H                 7.6232179744       -2.3493139994       -2.9764453225
H                 7.1335447250       -1.0623358547       -1.7706143430
H                 9.9909846030       -2.3038731142       -2.0104869028
H                 9.4545522725       -1.0176205185       -0.8244667814
H                 4.2558784818       -3.2279785668       -1.2546569417
H                 2.5712615088       -1.5596963204       -2.0237054615



