%chk=./calculation/no_transfer_pubchem_sampling_4_b3lyp/100182640.chk
%nprocshared=7
%mem=6GB
#p b3lyp/6-31g(d) opt SCF=XQC 

Gaussian input prepared by ASE

0 1
C                 0.9774048857       -3.3070049854        1.5273770529
C                 0.3466236927       -3.2258893797        0.1414696219
C                -1.1491787709       -2.8948896302        0.1830007197
N                -1.4134316965       -1.5993459905        0.7750202926
C                -1.6371491911       -0.4929482604        0.0335710259
O                -1.7332446165       -0.5019807334       -1.1738259882
C                -1.7207392173        0.8063539988        0.8646734593
C                -3.0253766068        0.9321322066        1.6819945383
C                -4.3523012890        0.8537350050        0.9723507365
C                -5.3013923800        1.8438028284        1.2010638067
C                -6.5464646148        1.7850387342        0.6009661506
C                -6.8652718371        0.7294138907       -0.2345683618
C                -5.9387225351       -0.2772185383       -0.4452690215
C                -4.6969064102       -0.2224095134        0.1625116164
N                -1.4223687549        1.9392820210        0.0097595521
C                -2.4925660736        2.5906165092       -0.7226811977
C                -3.1288354481        3.7466721169       -0.0001497102
C                -4.3471870103        4.2384769436       -0.4542425659
C                -4.9525571526        5.3093174042        0.1761909358
C                -4.3483993906        5.9027823261        1.2725189162
C                -3.1300799991        5.4264164482        1.7233187923
C                -2.5219293380        4.3572722512        1.0875516271
C                -0.1520213805        2.2044308179       -0.4052187086
O                 0.0939919062        3.1065920448       -1.1796897558
C                 0.9424269346        1.2984481767        0.1457244942
C                 2.2892458673        1.5227497369       -0.5601768037
C                 3.0263662129        0.2181392246       -0.5284557368
C                 3.7600229722       -0.1539001522        0.5950086186
C                 4.2819389660       -1.4302924394        0.7015901460
C                 4.0743176444       -2.3293855820       -0.3257618910
S                 4.6638503981       -3.9947596238       -0.1227483310
O                 4.2489397288       -4.7931239541       -1.2426828373
O                 4.3294233695       -4.4538049922        1.1962442206
N                 6.3286239208       -3.7670993494       -0.1366268658
C                 6.8736325327       -3.6082828998       -1.4495943296
C                 6.9603878441       -2.2100179834       -1.9851327965
C                 8.2067253244       -2.9407624130       -1.5875576741
C                 3.3858727882       -1.9727204563       -1.4671289347
C                 2.8602229954       -0.6961145387       -1.5647359695
H                 1.9962123147       -3.6807029460        1.4558172864
H                 1.0115718189       -2.3276279836        2.0020394772
H                 0.4116997281       -3.9843980127        2.1641895852
H                 0.4676893907       -4.1836712454       -0.3651780513
H                 0.8625183899       -2.4694778504       -0.4529877525
H                -1.6876442528       -3.6555692297        0.7554792778
H                -1.5463906883       -2.8600115926       -0.8336982955
H                -1.2595741765       -1.5157662584        1.7666605743
H                -0.9278142941        0.7584891191        1.6220567443
H                -2.9997497986        0.1272355688        2.4251589023
H                -2.9785745787        1.8798091435        2.2229714620
H                -5.0663195144        2.6689069481        1.8573167288
H                -7.2660996975        2.5682204969        0.7873605132
H                -7.8333169853        0.6847911387       -0.7108694910
H                -6.1836668619       -1.1142708516       -1.0819920799
H                -3.9957063915       -1.0243614989       -0.0039946006
H                -2.0434973749        2.9742315903       -1.6469574388
H                -3.2439184268        1.8462847633       -0.9951170157
H                -4.8214393576        3.7721464918       -1.3056396371
H                -5.8997549703        5.6814493830       -0.1859269336
H                -4.8228222340        6.7361646822        1.7694501673
H                -2.6483782652        5.8908761632        2.5718575437
H                -1.5629156598        4.0000545080        1.4340612723
H                 1.0539177226        1.4524678072        1.2214940489
H                 0.6381197367        0.2638103681       -0.0240501446
H                 2.0940009836        1.8378998782       -1.5854172609
H                 2.8492584727        2.3136737565       -0.0621490904
H                 3.9028916071        0.5561594532        1.3964647572
H                 4.8262816273       -1.7533837450        1.5743387013
H                 6.7844066834       -4.4783382493        0.4178809472
H                 6.6130873087       -4.4006446398       -2.1467571193
H                 6.7606583171       -2.0511288347       -3.0330888689
H                 6.6222994217       -1.4110882163       -1.3443254154
H                 8.8741875004       -3.2925114477       -2.3586526721
H                 8.7000822327       -2.6311580994       -0.6799185843
H                 3.2525010076       -2.7082542499       -2.2442230927
H                 2.2923039931       -0.4100255776       -2.4374332887



