%chk=calculation/no_transfer_pubchem_sampling_4_b3lyp/101022871_rwf.chk
%rwf=calculation/no_transfer_pubchem_sampling_4_b3lyp/101022871_rwf.rwf
%nprocshared=14
%mem=3GB
#p b3lyp/6-31g(d) 6D 10F nosymm GFInput td=(50-50,nstate=2) SCF=XQC 

Gaussian input prepared by ASE

0 1
C                -6.2094748743       -1.8570745910        2.9494538473
C                -4.7799687048       -2.4091061776        2.8730589364
C                -4.7557151821       -3.9204371598        2.5073809731
C                -4.5270734600       -4.1399533266        1.0067275028
C                -3.1345276995       -3.6427599352        0.5319154912
C                -3.1056536741       -3.5229559978       -1.0221058332
C                -1.6884010114       -3.6395162497       -1.6088066570
C                -3.8393249034       -2.3016653668       -1.6019659784
C                -2.7301912578       -2.4062780288        1.3864684236
O                -1.8105728300       -1.5533511103        0.6468299525
C                -0.8707030311       -0.8932240450        1.3625027466
O                -0.7343570116       -0.9995181098        2.5630756682
C                -0.0335273301       -0.0059627763        0.4487502536
C                -0.8982445469        1.1738907194       -0.1520612645
C                -1.2368022163        2.1176575959        0.9867898477
C                -2.5037283636        2.4734739391        1.4388560447
C                -2.6299325804        3.3603795797        2.5105999033
C                -1.5090487927        3.9073792888        3.1573230522
C                -1.7044424493        4.8828012887        4.3338408369
C                -2.4880840855        4.1759379542        5.4654221380
C                -0.3661092545        5.3759730160        4.9161671169
C                -2.5024808813        6.1182255199        3.8531220597
C                -0.2389675218        3.5309465646        2.6882478852
C                -0.1050238286        2.6522766859        1.6164239200
C                 1.2009231057        2.1551684507        1.0208849137
C                 1.1662023793        2.4332152771       -0.4722737758
C                 2.1183770493        3.1019296975       -1.2287765222
C                 1.9257424356        3.2615792308       -2.6078278136
C                 0.7932708341        2.7539102823       -3.2580858164
C                 0.5502095812        2.9265129222       -4.7693427324
C                 0.4232011696        1.5369553636       -5.4376804225
C                 1.6946251812        3.6875350811       -5.4651907507
C                -0.7593065158        3.7207165520       -4.9913457040
C                -0.1538871877        2.0636457010       -2.4745271426
C                 0.0275013613        1.9089315926       -1.1066521904
C                 1.1912883315        0.5961207008        1.1930871183
C                 2.5421811519        0.0051499850        0.8082535454
O                 3.5906753996        0.6109261275        0.9023571562
O                 2.4373298029       -1.2809862301        0.4107748114
C                 3.6578837443       -2.0218554893        0.1071196458
C                 3.7170703704       -3.1896518287        1.0970491645
C                 4.9095783397       -4.1345119529        0.8395694922
C                 6.2546597148       -3.5160557289        1.2572764694
C                 4.8952281196       -4.5866355011       -0.6351290597
C                 4.8278840575       -3.4066439823       -1.6176728951
C                 3.6067916105       -2.4968287384       -1.3558298820
C                 3.4416806044       -1.3403372997       -2.3808077438
C                 4.6314822166       -0.3672255094       -2.4396266464
C                 3.1099686297       -1.8759494535       -3.7836651211
C                -3.9299279496       -1.5887770347        1.8707952970
H                -6.7403293201       -2.0008901934        1.9992041805
H                -6.2096233152       -0.7824522966        3.1687299541
H                -6.7872589097       -2.3600476752        3.7338190906
H                -4.3239716100       -2.2959154170        3.8656283705
H                -3.9584507332       -4.4281196549        3.0672146860
H                -5.6944853019       -4.3947291340        2.8199896519
H                -4.6266613434       -5.2026888246        0.7547302399
H                -5.3161376973       -3.6213574306        0.4455270365
H                -2.4122019336       -4.4334567013        0.7792879937
H                -3.6543253998       -4.4129209301       -1.3690285330
H                -1.7309849328       -3.7057144571       -2.7029804027
H                -1.1822956229       -4.5410411413       -1.2419140923
H                -1.0710899893       -2.7765030296       -1.3462159908
H                -3.3231118789       -1.3704447499       -1.3507655977
H                -3.8842833523       -2.3754792070       -2.6952371246
H                -4.8713957264       -2.2272093494       -1.2407091983
H                -2.1834543422       -2.7504477712        2.2680662915
H                 0.2884874307       -0.6274085800       -0.3899085064
H                -1.7851037975        0.7765929113       -0.6515178143
H                -3.3931553753        2.0700236687        0.9595420509
H                -3.6281045980        3.6300741493        2.8443411545
H                -2.6385988628        4.8594370102        6.3102756852
H                -3.4745162195        3.8393484137        5.1296396850
H                -1.9425628178        3.2982947588        5.8303082274
H                 0.2292218470        5.9158831112        4.1710599826
H                -0.5571276365        6.0642362709        5.7473308143
H                 0.2393532747        4.5493402477        5.3048582421
H                -3.4886107824        5.8412958406        3.4659008843
H                -2.6547545108        6.8209119630        4.6817646559
H                -1.9664093072        6.6444514374        3.0550527834
H                 0.6584675804        3.9239594265        3.1547231117
H                 2.0814374340        2.5790068367        1.5060730590
H                 3.0135034458        3.4981312092       -0.7562182699
H                 2.6820396381        3.7961684790       -3.1716839404
H                 0.2429901506        1.6455496272       -6.5143331622
H                -0.4050109279        0.9556959517       -5.0191661847
H                 1.3414337320        0.9530449001       -5.3043984418
H                 1.4780327847        3.7817884087       -6.5353757194
H                 1.8156235877        4.6995752605       -5.0627255792
H                 2.6521364144        3.1634652072       -5.3667052501
H                -0.9521618405        3.8486233433       -6.0637649026
H                -0.6953385774        4.7154830691       -4.5359249855
H                -1.6243620958        3.2098095952       -4.5555753394
H                -1.0451611068        1.6476961112       -2.9385584804
H                 1.0688977147        0.3713101892        2.2602923002
H                 4.4956651334       -1.3399824535        0.2630669904
H                 3.7547170666       -2.7926362337        2.1192058147
H                 2.7786337732       -3.7538936096        1.0104519476
H                 4.7589034916       -5.0249044488        1.4658907199
H                 6.2412276324       -3.2332037446        2.3164464217
H                 7.0717561452       -4.2330719018        1.1131957403
H                 6.5024046624       -2.6167001466        0.6828010818
H                 5.7801477261       -5.2009767081       -0.8475164461
H                 4.0208208628       -5.2329334673       -0.7987363641
H                 5.7507427902       -2.8162927629       -1.5504806907
H                 4.7868068611       -3.7915998269       -2.6430054698
H                 2.7053130659       -3.1249465379       -1.4448716207
H                 2.5684070194       -0.7619023869       -2.0515168979
H                 4.8437326200        0.0815817577       -1.4641432439
H                 5.5427845425       -0.8588190383       -2.8016038248
H                 4.4066446694        0.4538140528       -3.1303634675
H                 2.8481549054       -1.0507045561       -4.4563526937
H                 2.2594021155       -2.5683507240       -3.7595889924
H                 3.9595907176       -2.4037313510       -4.2334745739
H                -4.5412520696       -1.2872525987        1.0110086166
H                -3.5734629464       -0.6698416609        2.3481830745



