%chk=./calculation/no_transfer_pubchem_sampling_4_b3lyp/10795139.chk
%nprocshared=7
%mem=6GB
#p b3lyp/6-31g(d) opt SCF=XQC 

Gaussian input prepared by ASE

0 1
C                -5.1356071268        0.4658208833       -4.5646178992
C                -4.4828046996        0.4891646693       -3.2037429440
O                -5.1271921081        0.3490330802       -2.1883940596
C                -3.0113085470        0.6935720829       -3.1654518359
C                -2.1945163794        0.5964704964       -4.2903588479
C                -0.8289878890        0.7793288452       -4.1665716660
C                -0.2657627401        1.0619348256       -2.9346986533
C                -1.0655031138        1.1730580256       -1.8030137971
C                -0.4539719762        1.4952517175       -0.4707254122
N                 0.4276660759        0.4320568520        0.0106978134
C                 1.5389638217        0.8488444431        0.6886677451
O                 1.7995807306        2.0392260942        0.7489548778
N                 2.3224823474       -0.0660262634        1.4071552764
C                 3.0676201030        0.6225483227        2.4737465078
C                 2.0927314180        0.9785000224        3.5654880558
C                 1.5153892412       -0.0333928140        4.3254227802
C                 0.5669396467        0.2645456728        5.2887274640
C                 0.1709838875        1.5738238248        5.4962004673
C                 0.7445895566        2.5992370700        4.7483963528
C                 0.3709327106        4.0288084278        4.9208344405
C                -1.0026531467        4.2915629124        5.4851697053
O                 1.1231017053        4.9230087778        4.6087953189
C                 1.7093913268        2.2892306629        3.7911910129
C                 2.9650538740       -1.2770192504        0.9190999462
C                 4.1059788307       -1.0357993458       -0.0994003577
C                 3.7292096689       -0.6212529481       -1.4896757972
C                 3.4956710704        0.7090652286       -1.8219070629
C                 3.1806660256        1.0610254999       -3.1208834500
C                 3.0919021564        0.0940741720       -4.1153455046
C                 3.3722783173       -1.2369631579       -3.7988211109
C                 3.6909067067       -1.5783224310       -2.4932785085
O                 3.3633254991       -2.2311016747       -4.7489997954
C                 3.3992373790       -1.7316404497       -6.0659845218
C                 2.3877152708       -0.5971784869       -6.2205812912
O                 2.7318808664        0.4829497794       -5.3835212081
C                 1.9208573853       -2.3144096357        0.5257796601
O                 2.4416429057       -3.4764834217       -0.0834782919
C                 1.3319949607       -4.1153609959       -0.7062402474
C                 0.7807869547       -5.2359308989        0.1817962634
C                 1.7680140500       -4.6628763683       -2.0645897172
O                 0.3156605685       -3.1222041264       -0.8645069244
C                 0.8749014825       -1.8804173445       -0.4898316406
C                -0.1564049377       -0.8921206771        0.0401868152
C                -0.7455714441       -1.2542842466        1.4173859083
C                -2.0073449854       -0.4807819040        1.6792501942
C                -3.1716164548       -0.7811812652        0.9781899183
C                -4.3205928499       -0.0403529045        1.1652087641
C                -4.3379150025        1.0046486393        2.0811422387
C                -3.1885141224        1.2819083372        2.8254375613
C                -2.0281349179        0.5511140256        2.6040710845
O                -3.1651602595        2.2654924449        3.7890832061
C                -4.4533519113        2.7049317607        4.1617157477
C                -5.3076840059        2.9411909631        2.9175494169
O                -5.4934415977        1.7306925475        2.2232314169
C                -2.4321581960        0.9846756903       -1.9302060164
H                -4.8506159173        1.3438362353       -5.1389959391
H                -4.8212795095       -0.4239377581       -5.1067072905
H                -6.2155827977        0.4404891138       -4.4439407222
H                -2.6131135658        0.3695959524       -5.2583703897
H                -0.1965449859        0.7144090955       -5.0394885523
H                 0.8002936149        1.2003264728       -2.8423110890
H                -1.2435524082        1.6738329952        0.2680925678
H                 0.1617289834        2.3954670666       -0.5442360453
H                 3.8306985538       -0.0516303664        2.8637910444
H                 3.5505886561        1.5263628710        2.0916026033
H                 1.8130125383       -1.0597356896        4.1608586462
H                 0.1275580085       -0.5294270545        5.8749074123
H                -0.5722498877        1.7898669458        6.2472555563
H                -1.7345929963        3.6720560800        4.9733952763
H                -1.2468538498        5.3443953997        5.3678635763
H                -1.0150823158        4.0466297050        6.5456776451
H                 2.1351995520        3.0897230113        3.2060624701
H                 3.4688703653       -1.7100064495        1.7931191490
H                 4.7545605594       -0.2724816933        0.3379771319
H                 4.6618102338       -1.9731060744       -0.1548807223
H                 3.5549368136        1.4771830932       -1.0669617124
H                 3.0063024237        2.0905766452       -3.3926249798
H                 3.9139212021       -2.6094524414       -2.2710039621
H                 4.4046616930       -1.3539019105       -6.2979851216
H                 3.1604641130       -2.5688516258       -6.7232792175
H                 1.3893519485       -0.9756562019       -5.9571385235
H                 2.3770195475       -0.2091315979       -7.2403518684
H                 1.3940846350       -2.6103634562        1.4484517041
H                -0.1369249878       -5.6172123982       -0.2547242919
H                 0.5647178980       -4.8535741563        1.1759832886
H                 1.5132484135       -6.0336324878        0.2584835386
H                 2.6487177811       -5.2841425428       -1.9332622965
H                 2.0031908445       -3.8441368410       -2.7380258125
H                 0.9628097727       -5.2524713784       -2.4916262445
H                 1.3675666161       -1.4215608677       -1.3613692853
H                -0.9774139081       -0.8932048230       -0.6844125218
H                -0.9700030784       -2.3231422391        1.4067899791
H                -0.0152666148       -1.0376617162        2.1975676729
H                -3.1734011731       -1.5916534242        0.2653250159
H                -5.2134490279       -0.2388328242        0.5953454263
H                -1.1476670531        0.8092410917        3.1713092893
H                -4.3188237782        3.6264835135        4.7305481178
H                -4.9383641079        1.9479004474        4.7934507119
H                -6.3015218068        3.3054872978        3.1814977488
H                -4.8052436106        3.6741819876        2.2708058846
H                -3.0796265195        1.0591708109       -1.0682092676



