%chk=calculation/no_transfer_pubchem_sampling_4_b3lyp/109127643_rwf.chk
%rwf=calculation/no_transfer_pubchem_sampling_4_b3lyp/109127643_rwf.rwf
%nprocshared=14
%mem=3GB
#p b3lyp/6-31g(d) 6D 10F nosymm GFInput td=(50-50,nstate=2) SCF=XQC 

Gaussian input prepared by ASE

0 1
C                 5.8746582408        3.3721252742       -0.1223712114
O                 6.8280690111        2.3370119848       -0.2913323652
C                 6.3812813688        1.0480052802       -0.3693134509
C                 7.3719816691        0.0690708469       -0.5363185948
C                 6.9978554739       -1.2657400446       -0.6242476379
C                 5.6600037731       -1.6637709216       -0.5510899059
C                 4.6778534876       -0.6805181058       -0.3843946570
N                 3.3038074137       -0.9700843938       -0.2986861164
C                 2.6697785057       -2.1787193239       -0.3543747665
O                 3.2048837053       -3.2757191467       -0.4952999613
C                 1.1739076266       -2.0703315170       -0.2240303455
C                 0.3849587127       -3.2370558811       -0.2638897866
C                -0.9705994823       -3.0847634389       -0.1409292777
C                -1.4786361142       -1.7671035964        0.0170420360
N                -2.8338839674       -1.5969487340        0.1416047215
C                -3.6362449379       -0.4482225787        0.3081891791
C                -3.1527595261        0.8629068138        0.3853368014
C                -4.0638461455        1.9064770613        0.5513532191
C                -5.4425462688        1.7034141039        0.6446798612
C                -6.3835020599        2.8704910518        0.8241651459
C                -5.9268915480        0.3793103269        0.5665024126
C                -7.4061547420        0.0879931160        0.6599711619
C                -5.0217190459       -0.6667185432        0.4007304391
N                -0.6698696262       -0.6900362008        0.0473293114
N                 0.6417702863       -0.8606642596       -0.0737256567
C                 5.0383977264        0.6772465746       -0.2933355223
H                 5.1684772479        3.4137607381       -0.9626626955
H                 5.3124639241        3.2563558301        0.8141381190
H                 6.4451306113        4.3021894461       -0.0862073772
H                 8.4100759756        0.3794877602       -0.5929444450
H                 7.7648436246       -2.0247977078       -0.7536442871
H                 5.3743676461       -2.7033274392       -0.6200298339
H                 2.6678889238       -0.1865708033       -0.1777388509
H                 0.8657403193       -4.2007197248       -0.3882281954
H                -1.6447478012       -3.9377084159       -0.1622024386
H                -3.3618741121       -2.4583721217        0.1077264937
H                -2.0918247174        1.0530353948        0.3165264463
H                -3.6778254738        2.9217850157        0.6101073618
H                -5.8331005585        3.8155431029        0.8608604879
H                -6.9651976302        2.7891602854        1.7520937802
H                -7.1100599968        2.9413076627        0.0037680420
H                -7.8283568298        0.4399322698        1.6100607040
H                -7.9682362696        0.5896734029       -0.1383167535
H                -7.6068047010       -0.9851318681        0.5840595929
H                -5.4039894877       -1.6855393295        0.3413923408
H                 4.2604757685        1.4222807533       -0.1642975241



