%chk=calculation/no_transfer_pubchem_sampling_4_b3lyp/115374514_rwf.chk
%rwf=calculation/no_transfer_pubchem_sampling_4_b3lyp/115374514_rwf.rwf
%nprocshared=14
%mem=3GB
#p b3lyp/6-31g(d) 6D 10F nosymm GFInput td=(50-50,nstate=2) SCF=XQC 

Gaussian input prepared by ASE

0 1
C                -4.1093039615       -2.7988741376       -0.9754294908
C                -2.6791292989       -2.6314632133       -0.4509069369
C                -1.9062490269       -1.5334380131       -1.2035553956
N                -0.5039431655       -1.3320740493       -0.8226805197
C                -0.2565903065       -0.8334854778        0.5341297329
C                -0.7569230852        0.5941205979        0.6921421964
C                -1.3652595233        1.0075673473        1.8835961700
N                -1.7935492085        2.2518646224        2.1163221758
C                -1.6308316138        3.1471990418        1.1355529117
C                -1.0524783353        2.8616936522       -0.1070870656
C                -0.9069571687        3.9233517307       -1.1695338002
C                -0.6123575927        1.5507754278       -0.3158506005
C                 1.2511298362       -0.9709784114        0.8584860739
C                 2.2129955626       -0.1417644089        0.0449470081
C                 2.6683448984       -0.5797157143       -1.2069744555
C                 3.5474489201        0.1963244489       -1.9627904638
C                 3.9900657731        1.4286198199       -1.4776583902
C                 3.5464762874        1.8770891569       -0.2327450500
C                 2.6656100873        1.0976726058        0.5189900908
C                 1.6950265302       -2.3584898690        1.2911758291
C                 1.6002501274       -1.2439075522        2.3033394954
H                -4.6431628950       -3.5899597908       -0.4374629160
H                -4.1134279568       -3.0591665408       -2.0412355350
H                -4.6840240467       -1.8719141138       -0.8595341436
H                -2.7110333822       -2.4009151643        0.6218515496
H                -2.1358552004       -3.5831896253       -0.5483373617
H                -2.4277249366       -0.5755706250       -1.0895356331
H                -1.9174671299       -1.7641474341       -2.2776617169
H                 0.0038962990       -2.2075596098       -0.9365284312
H                -0.7728112391       -1.4381375557        1.3023447643
H                -1.5186618486        0.2917060339        2.6920434906
H                -1.9876889800        4.1556187532        1.3469287979
H                 0.1437911026        4.0601737108       -1.4525054207
H                -1.4538468217        3.6550971451       -2.0818938044
H                -1.2898575165        4.8885609689       -0.8225339796
H                -0.1599203451        1.2599992564       -1.2598164048
H                 2.3325017601       -1.5386278051       -1.5905769732
H                 3.8901680106       -0.1639047976       -2.9294744795
H                 4.6791369780        2.0315640025       -2.0633526314
H                 3.8873185816        2.8330809923        0.1565960193
H                 2.3219028177        1.4524259263        1.4868291431
H                 0.9478755126       -3.1484132840        1.3315736092
H                 2.6838540853       -2.6935895267        0.9912876048
H                 2.5269503068       -0.8269005033        2.6863075123
H                 0.7943141085       -1.2783200179        3.0318214250



