%chk=./calculation/no_transfer_pubchem_sampling_4_b3lyp/115374514.chk
%nprocshared=7
%mem=6GB
#p b3lyp/6-31g(d) opt SCF=XQC 

Gaussian input prepared by ASE

0 1
C                -4.0930640147       -2.7431757234       -1.0365666415
C                -2.6711645631       -2.6592406854       -0.4988415475
C                -1.8914037249       -1.5118302347       -1.1564107431
N                -0.5014859879       -1.3938836933       -0.7614918882
C                -0.2740407668       -0.9134943429        0.5931228188
C                -0.6925545378        0.5279033286        0.7129834465
C                -1.2238524672        1.0339405243        1.8925305186
N                -1.5355970790        2.3059804664        2.0644502476
C                -1.3304650812        3.1418663207        1.0629767908
C                -0.8135299125        2.7594917866       -0.1710999596
C                -0.6106927207        3.7445679541       -1.2785170884
C                -0.4947811841        1.4184804779       -0.3349043529
C                 1.2199721107       -1.0261992704        0.9177841110
C                 2.0781127848       -0.1148686321        0.1062890125
C                 2.5469048360       -0.5021739717       -1.1421587539
C                 3.2988035532        0.3692322830       -1.9098374248
C                 3.5893678741        1.6381466395       -1.4385846037
C                 3.1295960704        2.0305574837       -0.1929277380
C                 2.3786279926        1.1592443243        0.5747643548
C                 1.7454079681       -2.3827076179        1.2935211548
C                 1.6152219756       -1.3114058409        2.3363789875
H                -4.6332579580       -3.5619837680       -0.5667820255
H                -4.0849521876       -2.9085002848       -2.1118572199
H                -4.6289872515       -1.8179829352       -0.8366651189
H                -2.7052012361       -2.5089067630        0.5824253508
H                -2.1499761932       -3.6017397892       -0.6909563292
H                -2.3849267244       -0.5614318318       -0.9364003861
H                -1.9023937331       -1.6536544519       -2.2423665128
H                -0.0339864536       -2.2869218042       -0.8845951888
H                -0.8233522737       -1.5046530751        1.3497909840
H                -1.4065368981        0.3908168739        2.7449316729
H                -1.5940848274        4.1741703946        1.2581709207
H                 0.2709773005        3.4842713407       -1.8603673067
H                -1.4719062591        3.7378080034       -1.9471780900
H                -0.4950030335        4.7516036229       -0.8847652987
H                -0.0933136044        1.0544757665       -1.2688628115
H                 2.3154473901       -1.4886073586       -1.5147671202
H                 3.6574774117        0.0584780667       -2.8805650234
H                 4.1738233594        2.3192484948       -2.0400217699
H                 3.3533747093        3.0193346432        0.1803831460
H                 2.0154626628        1.4680343897        1.5446462914
H                 1.0550825140       -3.2135729400        1.3274906229
H                 2.7372616793       -2.6538968737        0.9641989790
H                 2.5200573618       -0.8566730569        2.7102287010
H                 0.8395341194       -1.4101502405        3.0810268319



