%chk=calculation/no_transfer_pubchem_sampling_4_b3lyp/121074177_rwf.chk
%rwf=calculation/no_transfer_pubchem_sampling_4_b3lyp/121074177_rwf.rwf
%nprocshared=14
%mem=3GB
#p b3lyp/6-31g(d) 6D 10F nosymm GFInput td=(50-50,nstate=2) SCF=XQC 

Gaussian input prepared by ASE

0 1
C                -6.4108569648        1.5190052694       -0.1446914705
C                -6.6345337906        0.5359318742        0.9604387797
N                -7.8292100008        0.2072106627        1.3899327867
C                -7.6367714451       -0.6727154655        2.4388088623
C                -6.3101891769       -0.8734656145        2.6655386878
N                -5.6421717410       -0.1071384510        1.7082278651
C                -4.2377397269       -0.0360998457        1.6277614696
C                -3.5638782366        0.3623845292        0.4819067308
C                -2.1529883414        0.4019527139        0.5525525282
N                -1.4548462825        0.8114999004       -0.5560601202
C                -0.0756520405        0.9276319683       -0.8148727861
C                 0.9385738404        0.6284199504        0.1086829562
C                 2.2728019682        0.7925119084       -0.2580398342
C                 2.6274016094        1.2351674846       -1.5345994353
N                 4.0155263742        1.3982871203       -1.8566350004
S                 4.8483548667        0.1028666805       -2.6193439249
O                 6.0168596869        0.7533939359       -3.2219810146
O                 3.9310951190       -0.7102674454       -3.4242025702
C                 5.3797262467       -0.8966404790       -1.2290335314
C                 4.7479826039       -2.1162674784       -0.9864733219
C                 5.1786025050       -2.8954412127        0.0892261791
C                 6.2258540450       -2.4536612109        0.8992063595
C                 6.8541530500       -1.2318232514        0.6382203425
C                 6.4346065393       -0.4445128735       -0.4320273970
C                 1.6150380950        1.5214538808       -2.4578330777
C                 0.2818385379        1.3813478656       -2.0977196148
N                -1.4953621209        0.0423276095        1.6672940401
C                -2.2597049332       -0.3560466449        2.6863849447
N                -3.5848368516       -0.4137461014        2.7455808000
H                -6.0916429605        1.0412708354       -1.0804089151
H                -5.6701957368        2.2830382020        0.1166000941
H                -7.3676447576        2.0092885874       -0.3350641147
H                -8.4752281558       -1.1033503121        2.9689236783
H                -5.7578170076       -1.4575224951        3.3816648874
H                -4.0786127634        0.6092822149       -0.4361676483
H                -2.0388437222        1.0650708255       -1.3415960518
H                 0.6746783154        0.2881426296        1.0990018109
H                 3.0573073301        0.5855239338        0.4628877239
H                 4.2241499788        2.2231791578       -2.4179292370
H                 3.9440385495       -2.4428412647       -1.6367768971
H                 4.6971703101       -3.8482065152        0.2898685373
H                 6.5585619897       -3.0641562591        1.7341747345
H                 7.6746083497       -0.8954499881        1.2655584330
H                 6.9184453045        0.5001790174       -0.6566346479
H                 1.8732045468        1.8464810244       -3.4614918724
H                -0.4943575919        1.6128578309       -2.8246639050
H                -1.7274934139       -0.6663537046        3.5838221566



