%chk=./calculation/no_transfer_pubchem_sampling_4_b3lyp/123220549.chk
%nprocshared=7
%mem=6GB
#p b3lyp/6-31g(d) opt SCF=XQC 

Gaussian input prepared by ASE

0 1
C                 5.3597005587        0.4335925427        0.2802185444
C                 3.8733464544        0.2959307620        0.1646187288
C                 3.1615819824        0.9042759495       -0.8665325283
C                 1.7883318203        0.7665365133       -0.9574076956
C                 1.0578508269        1.3793988063       -2.1133608491
C                 1.1323998921       -0.0031018841        0.0321530925
C                -0.2997536935       -0.1876009679        0.0848941459
C                -1.1924735465        0.8642305380       -0.0235498213
C                -2.5526112016        0.7372872562        0.2034199391
C                -3.4753512379        1.9077213143        0.1000483963
C                -3.0351804773       -0.5507995896        0.6018103840
C                -4.4776415958       -0.7491159856        0.9482953734
C                -2.1592205028       -1.5807280782        0.6715937942
N                -0.8186847778       -1.4588111959        0.3778422912
C                -0.0618399487       -2.6627472860        0.1536681323
C                 1.9554066100       -0.5794293300        1.0175679100
N                 3.2578743120       -0.4408081573        1.0876708279
H                 5.8499183702        0.0586296378       -0.6175939995
H                 5.7086778668       -0.1305867907        1.1399654756
H                 5.6367316953        1.4800352162        0.4032976860
H                 3.6937307975        1.4777011191       -1.6128563367
H                 0.1462569952        0.8280835809       -2.3345311932
H                 0.7868752591        2.4129651216       -1.8955507180
H                 1.6955191775        1.3860480850       -2.9957410490
H                -0.7892954046        1.8430470746       -0.2328397422
H                -3.9561574640        2.1135550633        1.0576954189
H                -4.2649551145        1.7191238703       -0.6289037267
H                -2.9295192843        2.7963203448       -0.2074744593
H                -4.6697100397       -1.7833502269        1.2227848848
H                -5.1118505676       -0.4893589955        0.1016731331
H                -4.7608848008       -0.1094656013        1.7833663979
H                -2.4711163135       -2.5718914201        0.9666466679
H                 0.8468827112       -2.4309575638       -0.3986244279
H                -0.6557203426       -3.3730983621       -0.4277188019
H                 0.2188473140       -3.1417403981        1.0971524489
H                 1.5120336698       -1.1608929626        1.8163006758



