%chk=calculation/no_transfer_pubchem_sampling_4_b3lyp/124234365_rwf.chk
%rwf=calculation/no_transfer_pubchem_sampling_4_b3lyp/124234365_rwf.rwf
%nprocshared=14
%mem=3GB
#p b3lyp/6-31g(d) 6D 10F nosymm GFInput td=(50-50,nstate=2) SCF=XQC 

Gaussian input prepared by ASE

0 1
C                 4.4970500561        2.3700629149       -1.6285802352
O                 3.6027963155        1.4469152827       -2.2324031447
C                 3.3459999625        0.3106730935       -1.4579918028
C                 2.4094718968        0.5961275745       -0.2649409782
O                 1.9239672035        1.7145509897       -0.0979701193
N                 2.1756229115       -0.4331716574        0.6123470880
C                 2.3698634119       -1.8511785085        0.3162304959
C                 1.0452480671       -2.5878680981        0.1374601290
C                 1.0714837778       -3.8763898773       -0.4091025157
C                -0.1016738532       -4.6055137964       -0.5814811017
C                -1.3207856690       -4.0412598304       -0.2021183360
C                -1.3556069151       -2.7615921330        0.3461090486
C                -0.1817328086       -2.0189642851        0.5286263512
C                -0.2179962589       -0.5885357761        1.0670270951
C                -1.3019822115       -0.2854191377        2.0633408947
N                -1.7821400604       -1.0984301641        2.9864338349
C                -2.6751987734       -0.3490579494        3.7153525777
C                -2.7290295659        0.9342204384        3.2363214088
N                -1.8438177653        0.9778533610        2.1748954544
C                -1.5539054595        2.1572744991        1.3522776007
C                -2.1754630131        2.1289177264       -0.0326322662
C                -1.3959250065        2.3474318238       -1.1726366975
C                -2.0165546542        2.3522887059       -2.4219773664
C                -3.3923021850        2.1355303025       -2.4842998329
N                -4.1567318391        1.9168082231       -1.4050591959
C                -3.5485328721        1.9165241848       -0.2153534895
C                 1.1666684258       -0.2207087954        1.6453955310
H                 4.0740857617        2.8050002268       -0.7166429448
H                 5.4617838169        1.8911672258       -1.3944421634
H                 4.6656551704        3.1619751374       -2.3624401648
H                 4.2808801343       -0.1489724288       -1.0923792471
H                 2.8637541062       -0.4118337637       -2.1276227144
H                 2.9878953089       -1.9694084214       -0.5757044864
H                 2.9343049329       -2.3024148228        1.1457515511
H                 2.0254854875       -4.3092816614       -0.7055361487
H                -0.0654255113       -5.6028246436       -1.0113310322
H                -2.2451037894       -4.5981142796       -0.3290165241
H                -2.3022996006       -2.3358258005        0.6592366248
H                -0.3711877697        0.0764340279        0.2070599179
H                -3.2264834327       -0.7766872361        4.5420758029
H                -3.2918126716        1.8054554567        3.5383243265
H                -1.9205950924        3.0218763033        1.9156355637
H                -0.4702424693        2.2751077203        1.2591016285
H                -0.3218028921        2.4960618074       -1.0817259085
H                -1.4429101377        2.5157981455       -3.3294914243
H                -3.9090083953        2.1340518631       -3.4426915962
H                -4.1892329701        1.7286190472        0.6459566877
H                 1.2073360592        0.8196810901        1.9645214349
H                 1.3961298366       -0.8629541054        2.5027403888



