%chk=./calculation/no_transfer_pubchem_sampling_4_b3lyp/124234365.chk
%nprocshared=7
%mem=6GB
#p b3lyp/6-31g(d) opt SCF=XQC 

Gaussian input prepared by ASE

0 1
C                 4.4151189485        2.3974391733       -1.6574747653
O                 3.5341852806        1.4888557285       -2.2792934474
C                 3.2446832564        0.3516266834       -1.5153638996
C                 2.3539308260        0.6442996971       -0.3049099475
O                 1.9218512840        1.7604428458       -0.0760250828
N                 2.1072665620       -0.3927932417        0.5301343097
C                 2.2756463066       -1.7985094247        0.2478446030
C                 0.9426146698       -2.5045065145        0.1027698530
C                 0.9265165608       -3.7912878663       -0.4205670925
C                -0.2627861851       -4.4780222781       -0.5712800733
C                -1.4538360371       -3.8735317972       -0.2058379077
C                -1.4461446765       -2.5940052771        0.3153969999
C                -0.2536922676       -1.9034559819        0.4890873986
C                -0.2505124684       -0.4937821617        1.0296431164
C                -1.2881842014       -0.2299587328        2.0646793156
N                -1.7424576114       -1.0824447366        2.9472368124
C                -2.6259553321       -0.3950406668        3.7158326920
C                -2.6990641202        0.8994032791        3.2942578864
N                -1.8337908251        1.0067564708        2.2404155350
C                -1.5741664285        2.1952307364        1.4647448175
C                -2.0549377212        2.0560660009        0.0417252887
C                -1.2186704755        2.3359466385       -1.0339038411
C                -1.7106824334        2.1824231718       -2.3196977234
C                -3.0190743807        1.7504131675       -2.4778214591
N                -3.8188860685        1.4745284078       -1.4617927983
C                -3.3478668579        1.6244578460       -0.2381527444
C                 1.1455413860       -0.1783165100        1.5904982637
H                 3.9789755189        2.8255533280       -0.7517888151
H                 5.3660422395        1.9091081384       -1.4065813594
H                 4.5931333182        3.1877511777       -2.3833990003
H                 4.1747003893       -0.1329205879       -1.1736361845
H                 2.7116487019       -0.3215068119       -2.1944128220
H                 2.8683593178       -1.9461841349       -0.6542479132
H                 2.8255887104       -2.2515992081        1.0855380166
H                 1.8593666496       -4.2535669331       -0.7117420544
H                -0.2602109070       -5.4782209868       -0.9777775922
H                -2.3886475096       -4.3989724785       -0.3283645269
H                -2.3717717054       -2.1223028125        0.6044247074
H                -0.4256739578        0.1859649727        0.1853228104
H                -3.1475257536       -0.8775058357        4.5172557407
H                -3.2718080282        1.7330576290        3.6459068082
H                -2.0936747841        3.0280311943        1.9497822311
H                -0.5009878502        2.4144398317        1.4623200396
H                -0.1977007179        2.6499595140       -0.8650379415
H                -1.0882374632        2.3878939973       -3.1763790613
H                -3.4506474101        1.6129314450       -3.4604476272
H                -4.0368171254        1.3819889940        0.5618855829
H                 1.2165330486        0.8585396846        1.9208439522
H                 1.3727073286       -0.8446747749        2.4250388995



