%chk=calculation/no_transfer_pubchem_sampling_4_b3lyp/125608283_rwf.chk
%rwf=calculation/no_transfer_pubchem_sampling_4_b3lyp/125608283_rwf.rwf
%nprocshared=14
%mem=3GB
#p b3lyp/6-31g(d) 6D 10F nosymm GFInput td=(50-50,nstate=2) SCF=XQC 

Gaussian input prepared by ASE

0 1
C                -4.0888024871        2.0668534634        1.2479298963
C                -2.6096735470        1.6619870321        1.0911075806
C                -2.4099317729        0.1780983586        0.8557600849
C                -2.1009230059       -0.6636105179        1.9324690972
C                -1.9188679680       -2.0365431227        1.7653341510
C                -2.0645242567       -2.5999318358        0.4956719263
C                -2.3967501903       -1.7928904382       -0.5901003147
C                -2.5573040369       -0.4102095470       -0.4200301295
N                -2.8925406102        0.3822273783       -1.5575366382
S                -1.8409081587        0.5287016595       -2.8959622566
O                -2.4607795895        1.5698170322       -3.7165132512
O                -1.5875763702       -0.8219467733       -3.3942252682
C                -0.2979993174        1.1676496817       -2.2429027302
C                -0.0263401628        2.5329545146       -2.3163668009
C                 1.1560180336        3.0103912299       -1.7547078234
C                 2.0703229962        2.1674175085       -1.1069992669
C                 3.3317585898        2.7587942969       -0.5257448438
C                 1.7651939879        0.7875116401       -1.0286599494
C                 2.7062097756       -0.1769495789       -0.3476617749
O                 3.9276568015       -0.0445541324       -0.3901781401
N                 2.1013436551       -1.2171917984        0.3018478092
C                 2.8677964106       -2.2332478635        1.0297956496
C                 3.1797448753       -1.7774515018        2.4623050154
C                 2.1131756231       -3.5645584406        0.9889516803
C                 0.5929317103        0.2975391037       -1.6150856979
H                -4.5460791074        1.5404688201        2.0924152469
H                -4.6807040376        1.8227492878        0.3574572526
H                -4.1798127811        3.1440146652        1.4260442336
H                -2.0691316123        1.9474935604        2.0007349481
H                -2.1513503751        2.2417264847        0.2791552748
H                -1.9915705053       -0.2236656012        2.9213157919
H                -1.6785385590       -2.6612982628        2.6212628983
H                -1.9421050422       -3.6696661383        0.3511319068
H                -2.5335439846       -2.2158048936       -1.5783496572
H                -3.2870986184        1.2955469574       -1.3568132816
H                -0.7184959420        3.1984939860       -2.8215867697
H                 1.3806939443        4.0716721669       -1.8212254917
H                 4.2112549855        2.4153400225       -1.0772908692
H                 3.4868873921        2.4472848994        0.5118428020
H                 3.2921078108        3.8518168749       -0.5614381153
H                 1.1039436109       -1.1745184606        0.4689323234
H                 3.8115225109       -2.3301352995        0.4854605505
H                 3.7901561023       -2.5255165106        2.9813821928
H                 2.2572988371       -1.6328455510        3.0387496198
H                 3.7335292235       -0.8340772225        2.4469114335
H                 2.6834768263       -4.3425344182        1.5074605878
H                 1.1371248463       -3.4809520785        1.4848080094
H                 1.9446069655       -3.8897549686       -0.0428557230
H                 0.3865985243       -0.7666986690       -1.6137341700



