%chk=./calculation/no_transfer_pubchem_sampling_4_b3lyp/125850366.chk
%nprocshared=7
%mem=6GB
#p b3lyp/6-31g(d) opt SCF=XQC 

Gaussian input prepared by ASE

0 1
C                -9.2050545935        0.0691013711       -2.4959407056
O                -7.9873109131       -0.2350189451       -1.8336367771
C                -7.1687853240        0.8056931842       -1.6123345501
O                -7.4348541796        1.9350165111       -1.9440280237
C                -5.9184669264        0.4103886028       -0.9218127102
C                -4.9782373215        1.3998351360       -0.6404715357
C                -3.8015489382        1.0810893280        0.0042609828
C                -3.5479565313       -0.2375478415        0.3765706966
N                -2.3534658899       -0.5645969643        1.0377967142
C                -2.2720871171       -1.2105362214        2.2572182678
C                -3.4746725460       -1.6084307663        3.0393092858
C                -0.9541060836       -1.3304598401        2.5789431997
C                -0.1922935871       -0.7555289753        1.5221545263
C                 1.2338959256       -0.7089079652        1.4550528944
N                 1.8477993738       -0.1653718933        0.4802746063
N                 3.1930803695       -0.1663338995        0.4682138715
C                 3.8842139379        0.3738976228       -0.5851053934
O                 3.3518715915        0.8663222608       -1.5526225229
C                 5.3538950029        0.2893075575       -0.4165436970
C                 6.1450535169       -0.1918661687        0.5913271919
C                 7.4906771325        0.0085865008        0.1745758605
C                 8.7465837004       -0.2528510943        0.7239352049
C                 9.8579889775        0.0973514257       -0.0076359449
C                 9.7452711758        0.6980509468       -1.2655192101
C                 8.5168636001        0.9675249373       -1.8314709390
C                 7.3933971285        0.6157193868       -1.0962481460
O                 6.1028026539        0.7783141942       -1.4381456395
C                -1.0961477814       -0.2790367464        0.5850068961
C                -0.8200311926        0.3723816926       -0.7170478092
C                -4.4846377348       -1.2287437919        0.0910988957
C                -5.6625937866       -0.9077413040       -0.5523395984
H                -9.0047845861        0.5042281633       -3.4772752123
H                -9.7880785509        0.7824423456       -1.9095983631
H                -9.7403059741       -0.8715737736       -2.5965125643
H                -5.1944997217        2.4160749420       -0.9325810944
H                -3.0782554713        1.8472000115        0.2355257487
H                -3.8346125135       -2.5957912006        2.7470819313
H                -3.2200346564       -1.6465608963        4.0956732723
H                -4.2850067537       -0.8951876363        2.8974409237
H                -0.5582394738       -1.7751592155        3.4707702431
H                 1.7788298528       -1.1730447347        2.2903522346
H                 3.6959529673       -0.5918660688        1.2491089705
H                 5.8377311825       -0.6322446637        1.5188922831
H                 8.8356761162       -0.7163022040        1.6945910871
H                10.8424756206       -0.0932069551        0.3929579358
H                10.6441559328        0.9562399202       -1.8045579151
H                 8.4206535179        1.4302844719       -2.8000217385
H                 0.1240511696       -0.0012967518       -1.1052099950
H                -1.6215410537        0.1861495261       -1.4295036625
H                -0.7038541001        1.4494261535       -0.5963564985
H                -4.2744875629       -2.2517113187        0.3622742781
H                -6.3869675816       -1.6740703561       -0.7778887561



