%chk=./calculation/no_transfer_pubchem_sampling_4_b3lyp/129363522.chk
%nprocshared=7
%mem=6GB
#p b3lyp/6-31g(d) opt SCF=XQC 

Gaussian input prepared by ASE

0 1
C                -5.4984329925       -2.0033528879       -0.1888996123
O                -4.2865803503       -1.6448143373        0.4276304818
C                -3.6572030841       -0.5083334312        0.0164441144
C                -4.1136323730        0.3375841802       -0.9876263746
C                -3.3793716561        1.4661575253       -1.3139071872
C                -2.2016947206        1.7620149100       -0.6567293644
C                -1.7380749653        0.9242404148        0.3521688623
C                -0.4379964218        1.2096822718        1.0493237018
C                 0.7137229231        0.5141430044        0.3163707058
C                 2.0700340931        0.7638909303        1.0052518796
C                 2.0575952480        0.2050170654        2.3373798773
N                 2.0471086126       -0.2384339006        3.3911959489
C                 3.1949620485        0.1522429962        0.1999530730
C                 4.0004127409        0.9517328000       -0.5986352288
C                 5.0069831062        0.3875902741       -1.3626148877
C                 5.2180817004       -0.9800300511       -1.3326167188
C                 4.4183654092       -1.7821834950       -0.5362673012
C                 3.4097179965       -1.2199341874        0.2252314735
C                -2.4673675434       -0.2047328149        0.6774739407
H                -5.8145508957       -2.9251109746        0.2970537514
H                -6.2666087181       -1.2367040375       -0.0435833329
H                -5.3667510034       -2.1869070434       -1.2604279456
H                -5.0306056345        0.1337541156       -1.5173739251
H                -3.7395761317        2.1207316732       -2.0941677017
H                -1.6426377440        2.6474877193       -0.9211823715
H                -0.4788947003        0.8475266039        2.0787752053
H                -0.2570493224        2.2870652764        1.0708523064
H                 0.7732056036        0.8828775585       -0.7104224368
H                 0.5217574295       -0.5601110368        0.2747275230
H                 2.2293450539        1.8454630235        1.0994882357
H                 3.8422134489        2.0210241935       -0.6239853102
H                 5.6287000320        1.0186167537       -1.9805393057
H                 6.0054919981       -1.4193372054       -1.9266896664
H                 4.5806863254       -2.8493398135       -0.5064783536
H                 2.7916124618       -1.8473014448        0.8514817525
H                -2.1329669744       -0.8722176286        1.4568561910



