%chk=./calculation/no_transfer_pubchem_sampling_4_b3lyp/129457436.chk
%nprocshared=7
%mem=6GB
#p b3lyp/6-31g(d) opt SCF=XQC 

Gaussian input prepared by ASE

0 1
O                -3.2590864355        3.8763819690        2.2163423829
C                -2.5717630223        3.0230727666        1.7275197851
O                -1.6028294702        2.4196372117        2.3949718209
C                -2.7544951288        2.5556706131        0.2811109727
C                -3.0317742361        1.0424934965        0.1976369692
N                -2.1480040583        0.3808886479       -0.7554571122
C                -2.7175204221       -0.1256926631       -1.9845068539
C                -3.1546195107       -1.5992384895       -1.8773897262
C                -4.1309922875       -1.7926780864       -0.7508291704
C                -3.6872688991       -2.1816301276        0.5065007961
C                -4.5781327197       -2.3088209225        1.5577879655
C                -5.9236946299       -2.0488487945        1.3627750198
C                -6.3757377429       -1.6655970026        0.1113419998
C                -5.4837649696       -1.5372123069       -0.9383636015
C                -0.8672815911        0.2223315938       -0.3681652917
O                -0.4718832782        0.6216553192        0.7176675081
C                 0.0987712024       -0.4467303413       -1.3480688323
O                 1.4069738441       -0.4621446470       -0.8572765942
C                 2.0361727340        0.7301571827       -0.6271523527
C                 1.5876712124        1.9720998543       -1.0495566967
C                 2.3245007874        3.1155414581       -0.7833021696
C                 3.5143436536        3.0318323585       -0.0885179017
C                 3.9774404885        1.7983615769        0.3370090121
C                 3.2566327707        0.6461668424        0.0668251910
O                 3.6341856687       -0.5910605070        0.5148772801
C                 4.9504374664       -0.9597684652        0.4940054299
C                 5.8680372276       -0.4827893614       -0.4365817218
C                 7.1680751342       -0.9546535407       -0.4222875954
C                 7.5638296058       -1.9022374625        0.5056841423
C                 6.6450510263       -2.3881225210        1.4217587687
C                 5.3449786986       -1.9221832416        1.4200731806
H                -1.1070747006        1.7548030561        1.8522736537
H                -1.8308039816        2.7917508087       -0.2525821164
H                -3.5646675049        3.1321657712       -0.1637540887
H                -2.8833326091        0.5779276131        1.1783356357
H                -4.0620050077        0.8574045070       -0.0999540082
H                -3.5885355264        0.4902417050       -2.2196038619
H                -2.0011412954       -0.0186753165       -2.8022875052
H                -3.6115525506       -1.8826895554       -2.8270398387
H                -2.2795443635       -2.2296287403       -1.7164493805
H                -2.6375197440       -2.3855254072        0.6641326115
H                -4.2203336460       -2.6108729956        2.5305702936
H                -6.6189046019       -2.1473104938        2.1825362767
H                -7.4250463641       -1.4662294651       -0.0476900210
H                -5.8400017015       -1.2395155871       -1.9148952608
H                 0.0487345257        0.0467788714       -2.3303481234
H                -0.1669024010       -1.4999194337       -1.4718958906
H                 0.6568913327        2.0657329613       -1.5889320040
H                 1.9558969206        4.0728040872       -1.1190230419
H                 4.0821059395        3.9221742379        0.1318862214
H                 4.8999424933        1.7209692596        0.8934103170
H                 5.5597830937        0.2461917257       -1.1719843386
H                 7.8748572998       -0.5794061980       -1.1478432859
H                 8.5809654669       -2.2635134280        0.5118779433
H                 6.9438399112       -3.1321859538        2.1451689759
H                 4.6160958962       -2.2903574396        2.1248632325



