%chk=calculation/no_transfer_pubchem_sampling_4_b3lyp/129457436_rwf.chk
%rwf=calculation/no_transfer_pubchem_sampling_4_b3lyp/129457436_rwf.rwf
%nprocshared=14
%mem=3GB
#p b3lyp/6-31g(d) 6D 10F nosymm GFInput td=(50-50,nstate=2) SCF=XQC 

Gaussian input prepared by ASE

0 1
O                -4.5350646844        4.1606653947        0.9117339734
C                -3.5492195122        3.4642586481        0.8416678421
O                -2.6231342530        3.4500462994        1.8160049370
C                -3.2620425419        2.5479449852       -0.3530183508
C                -3.0199996179        1.0643868226        0.0429859121
N                -1.7677506267        0.5013085393       -0.4926771596
C                -1.8322752032       -0.4548041821       -1.6052125129
C                -1.9376001938       -1.9394702967       -1.1852178038
C                -3.1868443673       -2.2847007473       -0.4021784205
C                -3.1539288814       -2.3940670391        0.9939849917
C                -4.3139007413       -2.6795414494        1.7168252934
C                -5.5265743305       -2.8625846652        1.0512809433
C                -5.5715958234       -2.7638388784       -0.3412155136
C                -4.4103021340       -2.4793595022       -1.0599596253
C                -0.6090914340        0.9356594600        0.0687642929
O                -0.5896230101        1.7743232534        0.9763328087
C                 0.7163649319        0.3798051906       -0.4791257940
O                 1.7814134823        0.5664912741        0.4227080798
C                 2.5855859732        1.6699167907        0.3060520227
C                 2.1800364193        2.9066093319       -0.1981364575
C                 3.0862992054        3.9690082639       -0.2599766323
C                 4.3959382604        3.8091133746        0.1877327683
C                 4.8056648218        2.5734682947        0.6944212443
C                 3.9134979591        1.5077544601        0.7468342763
O                 4.3207990639        0.3181908359        1.3208020107
C                 4.4562225456       -0.8112393314        0.5397437396
C                 4.5509899625       -0.7825683262       -0.8539101886
C                 4.7294611200       -1.9800943764       -1.5504999981
C                 4.8190458470       -3.1956342699       -0.8717346952
C                 4.7295660305       -3.2078467005        0.5233431063
C                 4.5472836112       -2.0226416698        1.2316685667
H                -1.8691340962        2.8578865933        1.5755375174
H                -2.3762666635        2.9361361637       -0.8698058670
H                -4.1077247734        2.6412536539       -1.0371644939
H                -3.0001597958        0.9551910774        1.1302376695
H                -3.8337040379        0.4373539398       -0.3208209375
H                -2.7000558879       -0.1830358695       -2.2149431051
H                -0.9563109515       -0.3223409025       -2.2474106114
H                -1.8980303261       -2.5331379085       -2.1082239782
H                -1.0497313135       -2.2096602964       -0.6014500092
H                -2.2117689349       -2.2573034705        1.5199109693
H                -4.2679338423       -2.7607889424        2.7993850724
H                -6.4297495801       -3.0857791053        1.6122725569
H                -6.5098322603       -2.9144588409       -0.8684410689
H                -4.4526452513       -2.4147812734       -2.1457730695
H                 0.9322770643        0.8493448207       -1.4504962313
H                 0.6505028139       -0.7000580214       -0.6369974521
H                 1.1469174039        3.0568045423       -0.4883554137
H                 2.7521720769        4.9287254984       -0.6435858741
H                 5.0965214440        4.6377465995        0.1491357055
H                 5.8178207722        2.4137503429        1.0529158831
H                 4.4969903383        0.1627866439       -1.3836454558
H                 4.8067699444       -1.9549342662       -2.6346613321
H                 4.9611231083       -4.1219461244       -1.4208875474
H                 4.8002590765       -4.1469207192        1.0660038297
H                 4.4724717926       -2.0123969196        2.3144445861



