%chk=./calculation/no_transfer_pubchem_sampling_4_b3lyp/134329536.chk
%nprocshared=7
%mem=6GB
#p b3lyp/6-31g(d) opt SCF=XQC 

Gaussian input prepared by ASE

0 1
C                -6.7423327064        1.5359210139       -0.4774787166
C                -5.9173985006        0.4108009223        0.0620729056
C                -4.5286483083        0.4889264467        0.0850265910
C                -3.7706510111       -0.5703359253        0.5844428203
C                -2.3179189754       -0.5440235511        0.6166089938
N                -1.6344136047       -1.0761142760        1.6878539648
C                -0.3024518472       -0.9106759944        1.4940786904
C                 0.7687094392       -1.2614158131        2.3042435975
C                 2.0260113867       -0.9502087979        1.8427884170
F                 3.0703351755       -1.2930114120        2.6365298613
C                 2.2704770716       -0.3019754355        0.6207094874
C                 3.6648233955        0.0275396757        0.1562926288
C                 4.3594452659        1.0400718298        1.0821550378
C                 5.8727490195        1.0378921226        0.8117625070
N                 6.1042821188        0.5978449514       -0.5512738440
C                 5.8413227550       -0.8242359369       -0.7166712325
C                 4.5565849420       -1.2115524985        0.0271635861
C                 1.1852101485        0.0343235711       -0.1637591879
C                -0.1163821436       -0.2627632223        0.2479295278
C                -1.4170969389       -0.0449139615       -0.3025250960
C                -1.7380058212        0.5160654976       -1.6558592667
C                -1.3602833821        1.9972204524       -1.7402768521
C                -1.0477941932       -0.2924296539       -2.7582068712
C                -4.5065051902       -1.6567063683        1.0717175284
F                -3.8698106643       -2.7307823922        1.5980770684
C                -5.8859370434       -1.6565795181        1.0183404278
N                -6.5754978229       -0.6473709144        0.5182477570
H                -6.4907186241        1.7238223124       -1.5196899707
H                -7.7945935344        1.2803493663       -0.4025140934
H                -6.5520756488        2.4480473125        0.0852735240
H                -4.0366378688        1.3844637252       -0.2587299500
H                -2.0599024953       -1.5286279513        2.4788689825
H                 0.6393989136       -1.7566513853        3.2533118479
H                 3.5937724001        0.4778884445       -0.8381593232
H                 4.1791034564        0.7879869595        2.1265435851
H                 3.9420528044        2.0309492600        0.8977223930
H                 6.3823317760        0.3889316824        1.5449285394
H                 6.2757820799        2.0464594483        0.9248775789
H                 7.0517365261        0.8102887653       -0.8440403564
H                 6.6725952123       -1.4522465428       -0.3520970719
H                 5.7300802492       -1.0066417077       -1.7904584175
H                 4.7983604201       -1.5901942124        1.0198877547
H                 4.0340494860       -2.0005756621       -0.5160328823
H                 1.3626560755        0.5410811190       -1.0992963615
H                -2.8172111807        0.4225287295       -1.8160828214
H                -0.2918997384        2.1295590311       -1.5963179030
H                -1.6322099523        2.4005277818       -2.7133413511
H                -1.8770188766        2.5683611756       -0.9714446513
H                 0.0323440894       -0.2195578797       -2.6842252333
H                -1.3531228304        0.0761742925       -3.7351935364
H                -1.3252186154       -1.3414554957       -2.6828241079
H                -6.4524776884       -2.4993873808        1.3890444947



