%chk=./calculation/no_transfer_pubchem_sampling_4_b3lyp/137203183.chk
%nprocshared=7
%mem=6GB
#p b3lyp/6-31g(d) opt SCF=XQC 

Gaussian input prepared by ASE

0 1
O                -0.6737255517       -1.1598038475       -1.5555397102
C                -0.3379259811       -1.3345771884       -0.2548565337
C                -0.0298699344       -0.3420754584        0.6247415039
C                 0.1130338627        1.0944811693        0.3191361065
N                 0.8396062539        1.6135867904       -0.5930691322
C                 1.7961620074        0.8987729384       -1.4021488645
C                 2.4438279066       -0.3177362732       -0.7865933428
C                 2.4500314061       -1.5408602246       -1.4437505574
C                 3.0091758412       -2.6564224343       -0.8456416182
C                 3.5779360161       -2.5593889976        0.4119997621
C                 3.6010070892       -1.3370692536        1.0622674443
C                 3.0406415591       -0.2233432352        0.4652124622
N                -0.5999923756        1.9070851375        1.1457605981
C                -0.6860638134        3.3363690563        0.9376955585
C                -1.8590935381        3.6928302156        0.0601040915
C                -1.7627122663        3.5340398716       -1.3173899577
C                -2.8481084277        3.8041964645       -2.1309148709
C                -4.0413725393        4.2376662533       -1.5765806434
C                -4.1451193620        4.3972064907       -0.2056801436
C                -3.0599324559        4.1217931140        0.6086924078
S                 0.2632008931       -0.9573080654        2.2404131751
C                 0.0306056727       -2.5913027609        1.6945020366
C                 0.1522953048       -3.7482217471        2.4480787859
C                -0.0556816076       -4.9606053930        1.8229904575
C                -0.3855901584       -5.0239122365        0.4690421884
C                -0.5124052425       -3.8764614234       -0.2807804955
C                -0.3009063924       -2.6417396337        0.3305012154
H                -0.6156489725       -0.2223096876       -1.7779949097
H                 2.5756833748        1.6384897272       -1.6309107972
H                 1.3336810340        0.6260138188       -2.3612601948
H                 1.9982827346       -1.6277075090       -2.4220868895
H                 2.9916120599       -3.6062499265       -1.3599435060
H                 4.0018055969       -3.4334386277        0.8841936631
H                 4.0495411507       -1.2523420811        2.0413568756
H                 3.0432355410        0.7282526604        0.9782305423
H                -1.3189950928        1.4787199267        1.7071602173
H                -0.7741801483        3.8215397810        1.9137104539
H                 0.2490171661        3.6304863882        0.4572111529
H                -0.8270202466        3.1971898482       -1.7380549535
H                -2.7638301334        3.6805706968       -3.2008949372
H                -4.8880726244        4.4519959810       -2.2119783132
H                -5.0733913026        4.7359822858        0.2309105940
H                -3.1448896803        4.2478783915        1.6792928025
H                 0.4092754059       -3.6930799489        3.4944486429
H                 0.0401672627       -5.8742422659        2.3902944516
H                -0.5407979542       -5.9875009296        0.0072638320
H                -0.7644993379       -3.9074468579       -1.3291406506



