%chk=./calculation/no_transfer_pubchem_sampling_4_b3lyp/138566991.chk
%nprocshared=7
%mem=6GB
#p b3lyp/6-31g(d) opt SCF=XQC 

Gaussian input prepared by ASE

0 1
C                 8.3893679453        2.9525571984        0.7145415381
N                 7.6024218848        2.3107908663       -0.3069503321
C                 6.2697961965        2.0286939290       -0.1620857000
C                 5.4898600579        2.5885553108        0.8570454510
C                 4.1395159963        2.3262811217        0.9251571266
C                 3.5149040358        1.4992037532       -0.0039982067
C                 4.3003853520        0.9190442207       -1.0134357869
C                 5.6524705488        1.1828246005       -1.0896563381
O                 3.7490866564        0.1304331233       -1.9909191868
C                 2.5688861194       -0.5775446406       -1.6624551110
C                 2.9113484151       -1.8816005958       -0.9586548065
C                 3.0178492560       -3.0513760206       -1.6984992258
C                 3.3648757719       -4.2393326965       -1.0806989932
C                 3.6108326761       -4.2658864909        0.2814798006
C                 3.5087394778       -3.1013409039        1.0225718275
C                 3.1604762806       -1.9118121752        0.4072610394
N                 1.6707833836        0.2292824617       -0.8842182615
C                 2.1041773447        1.2064180156       -0.0148324811
C                 1.0255511293        1.7309063001        0.6529273920
C                -0.1243319308        1.0400071152        0.1932236108
C                -1.4812093131        1.1224669112        0.4961753697
C                -2.3629285008        0.2679407696       -0.1437591264
N                -3.7261616279        0.3854284643        0.1876895352
C                -4.7918429082       -0.3203900596       -0.2682684691
O                -4.7535243587       -1.2008425711       -1.0946554950
C                -6.0897994607        0.1287399930        0.4183483853
C                -6.1736636576       -0.3926749049        1.8574259647
C                -7.6755526052       -0.3700845250        2.1342081480
F                -8.0197525651        0.7227714336        2.8805706542
F                -8.0760909562       -1.4282931230        2.8857919126
C                -8.3486284587       -0.3309663701        0.7611235899
N                -7.2639817655       -0.4616943733       -0.1939047792
C                -7.5793358291        0.0287171253       -1.5125184919
C                -1.9080316311       -0.6732241262       -1.0789946765
C                -0.5696166187       -0.7697250493       -1.3941378468
C                 0.3172664430        0.0911730013       -0.7652788729
H                 8.0039026128        3.9550763628        0.9076642030
H                 8.3908510601        2.3914402565        1.6571573026
H                 9.4142558774        3.0446420141        0.3622961561
H                 8.1025912033        1.7030012836       -0.9356916892
H                 5.9408776215        3.2327717634        1.5935992637
H                 3.5462460249        2.7661215708        1.7119587398
H                 6.2256830956        0.7335130463       -1.8862018230
H                 2.0993043338       -0.8015435472       -2.6321483725
H                 2.8295346298       -3.0281923034       -2.7622333227
H                 3.4421134343       -5.1453352771       -1.6632510965
H                 3.8805777188       -5.1932500224        0.7646629231
H                 3.6995474609       -3.1168562314        2.0853658872
H                 3.0795476070       -1.0092641240        0.9946989903
H                 1.0469653729        2.5244044027        1.3723520299
H                -1.8350572595        1.8432106839        1.2202684292
H                -3.9108407202        1.1003065190        0.8780958086
H                -6.1366286571        1.2384984914        0.4117426127
H                -5.6277027274        0.2048553950        2.5848670756
H                -5.8334894709       -1.4275609089        1.8987341814
H                -8.8909354642        0.6245008720        0.6622480715
H                -9.0569777340       -1.1541849899        0.6476617784
H                -7.7908416262        1.1106314920       -1.5208508011
H                -6.7389374370       -0.1807055977       -2.1691651266
H                -8.4527704525       -0.5041906563       -1.8824721228
H                -2.6230281598       -1.3254473023       -1.5490727673
H                -0.2289321278       -1.5018932818       -2.1099074894



