%chk=calculation/no_transfer_pubchem_sampling_4_b3lyp/138566991_rwf.chk
%rwf=calculation/no_transfer_pubchem_sampling_4_b3lyp/138566991_rwf.rwf
%nprocshared=14
%mem=3GB
#p b3lyp/6-31g(d) 6D 10F nosymm GFInput td=(50-50,nstate=2) SCF=XQC 

Gaussian input prepared by ASE

0 1
C                 8.3260230244        3.1544020620        0.0674916571
N                 7.4994081557        2.4328442273       -0.8805724605
C                 6.1811804514        2.1017724884       -0.6152232381
C                 5.4575283348        2.6969066081        0.4405099615
C                 4.1236293613        2.3685726579        0.6467145410
C                 3.4565622041        1.4446856655       -0.1683342306
C                 4.1987741712        0.8408297775       -1.2056299079
C                 5.5284498073        1.1571929106       -1.4313975575
O                 3.5958655494       -0.0438349221       -2.0742983761
C                 2.5334558499       -0.8342340557       -1.5260384536
C                 3.0889109061       -1.9841331597       -0.6871926924
C                 4.0065397225       -2.8574154841       -1.2872661141
C                 4.5311124972       -3.9313320941       -0.5720731214
C                 4.1414433498       -4.1460064323        0.7530637114
C                 3.2276375939       -3.2812306349        1.3536681300
C                 2.7013039871       -2.2034469711        0.6366531122
N                 1.6079608534        0.0268454075       -0.8223396207
C                 2.0516856592        1.1025027687       -0.0572576957
C                 0.9766975257        1.6481364422        0.6140548388
C                -0.1802351066        0.8787033474        0.2647274859
C                -1.5372259231        0.9465717369        0.6106921727
C                -2.4312517607        0.0141225353        0.0804538069
N                -3.7911194640        0.1357250568        0.4664129371
C                -4.8681554560       -0.6453771817        0.1363679021
O                -4.8286598639       -1.6258607059       -0.5939075795
C                -6.1881363917       -0.1849387917        0.7873704258
C                -6.9393399144       -1.3540969420        1.4343559367
C                -8.3653584793       -0.8264870888        1.4977119096
F                -8.5765995211       -0.2013011436        2.7088801513
F                -9.3005117824       -1.8193336451        1.4116097133
C                -8.4881022499        0.2029075552        0.3620509253
N                -7.1472740599        0.2682097726       -0.2235816902
C                -6.8353896839        1.5204607529       -0.8833955610
C                -1.9856511937       -0.9996269564       -0.7995263857
C                -0.6434609765       -1.0809917869       -1.1556704542
C                 0.2462345266       -0.1411718335       -0.6339783589
H                 7.9486625144        4.1733175016        0.2120432486
H                 8.3831748896        2.6675707769        1.0542153792
H                 9.3368248964        3.2323078797       -0.3405355969
H                 7.9908184452        1.7688937713       -1.4622023698
H                 5.9371167136        3.4141549964        1.0966448498
H                 3.5826132984        2.8368541184        1.4645477925
H                 6.0520827790        0.6701452646       -2.2491482677
H                 2.0213635409       -1.2340791382       -2.4062555981
H                 4.3152168161       -2.6846185195       -2.3150944996
H                 5.2423005749       -4.6019112151       -1.0471371614
H                 4.5478573419       -4.9849640104        1.3116053478
H                 2.9199163744       -3.4419677945        2.3833541761
H                 1.9881581181       -1.5365850194        1.1099600284
H                 1.0029497104        2.5263675821        1.2442453583
H                -1.8898148359        1.7201730817        1.2905899134
H                -3.9838918192        0.9111505631        1.0862638291
H                -5.9881343108        0.5991687875        1.5481672208
H                -6.5700422303       -1.6364551633        2.4228073733
H                -6.8910351304       -2.2105324058        0.7572431056
H                -8.8155349128        1.1621225872        0.7976999262
H                -9.2292913457       -0.1124030478       -0.3805855208
H                -6.8352535936        2.3884367119       -0.1935434304
H                -5.8521701674        1.4565277534       -1.3598273222
H                -7.5735412757        1.7143507933       -1.6687064421
H                -2.7027006004       -1.7090087741       -1.1866110974
H                -0.3115784945       -1.8695920244       -1.8248480634



