%chk=calculation/no_transfer_pubchem_sampling_4_b3lyp/141844_rwf.chk
%rwf=calculation/no_transfer_pubchem_sampling_4_b3lyp/141844_rwf.rwf
%nprocshared=14
%mem=3GB
#p b3lyp/6-31g(d) 6D 10F nosymm GFInput td=(50-50,nstate=2) SCF=XQC 

Gaussian input prepared by ASE

0 1
C                 0.5927690686       -3.8345698697       -0.0274949685
C                 0.3366803865       -2.3801673877        0.3248644905
C                -0.9864050362       -1.9027075324        0.3722065925
C                -2.0937748454       -2.9124144929        0.1195314216
C                -1.2426995205       -0.5492896466        0.7025987679
C                -2.6791498782       -0.0306011313        0.7362307406
C                -3.2692611218        0.5969794686       -0.5749678308
C                -4.7270665195        0.9990302790       -0.2737183388
C                -3.2614086578       -0.4082942224       -1.7417261311
C                -2.4888917134        1.8518984430       -1.0075184506
C                -0.1501915310        0.3010388576        1.0121400354
C                -0.3835291474        1.7015990284        1.5615906813
C                 1.1865098097       -0.1661455538        0.9045620298
C                 2.3525286663        0.7938458134        1.1321427241
C                 3.0018982500        1.4895366220       -0.1188029762
C                 3.5668957379        0.4715911420       -1.1266326447
C                 1.9945127408        2.3903939967       -0.8569382080
C                 4.1601822963        2.3654615008        0.4004110483
C                 1.4209161638       -1.5280717720        0.6113195593
C                 2.8075397929       -2.1475811308        0.6651787245
H                -0.1273462915       -4.2066232096       -0.7608203259
H                 0.5171875643       -4.4906861851        0.8525987110
H                 1.5865550185       -3.9854154043       -0.4531266127
H                -2.1419691750       -3.2119120885       -0.9355784518
H                -1.9241787431       -3.8265056089        0.6994713527
H                -3.0831060208       -2.5455428700        0.3864691956
H                -3.3539376615       -0.8381774099        1.0335212725
H                -2.7921069902        0.7168805723        1.5263640036
H                -5.1997595458        1.4492935927       -1.1552586336
H                -5.3285397806        0.1292154992        0.0189213767
H                -4.7784099696        1.7311012656        0.5420327143
H                -3.6735122090        0.0569910111       -2.6457574820
H                -3.8708310189       -1.2912224656       -1.5191584056
H                -2.2453685730       -0.7454445978       -1.9732564887
H                -1.4395460289        1.6189233461       -1.2169009965
H                -2.5173455925        2.6315317158       -0.2380492068
H                -2.9254817339        2.2737645677       -1.9213060628
H                 0.1778048121        1.8485896502        2.4914084734
H                -0.0706885210        2.4895424139        0.8715567211
H                -1.4281164410        1.8903057553        1.7992913966
H                 2.0434390827        1.5968315134        1.8065820599
H                 3.1595490981        0.2785773519        1.6635993039
H                 4.0135585554        0.9960027757       -1.9804958405
H                 2.7831958704       -0.1879746285       -1.5138507402
H                 4.3483954816       -0.1517249358       -0.6789872350
H                 2.4625337592        2.8386932204       -1.7421043836
H                 1.1203676508        1.8227931338       -1.1943049835
H                 1.6473708588        3.2121454389       -0.2202637579
H                 4.6515080078        2.8948379593       -0.4252465727
H                 3.8022028568        3.1188856005        1.1131832829
H                 4.9216375284        1.7598554362        0.9076819746
H                 3.1857080272       -2.4163318260       -0.3291642280
H                 2.7924103118       -3.0685025351        1.2587486888
H                 3.5487648705       -1.4902304666        1.1172206131



