%chk=./calculation/no_transfer_pubchem_sampling_4_b3lyp/146255698.chk
%nprocshared=7
%mem=6GB
#p b3lyp/6-31g(d) opt SCF=XQC 

Gaussian input prepared by ASE

0 1
N                 0.0852557756       -1.8034148217       -3.3579189576
C                -1.1768926881       -1.8861982957       -2.8760093716
N                -1.9992392374       -2.7201042848       -3.4725672316
C                -3.2639276395       -2.8208949710       -3.0059899911
C                -3.7292383713       -2.1604843754       -1.9190263610
N                -2.8734464521       -1.2998732644       -1.2761167550
C                -3.0035855127       -0.5363513492       -0.1629714700
C                -4.2462481915       -0.4917204219        0.6557403833
C                -4.5265189568       -1.7828656403        1.4498065137
C                -5.3618852840       -1.3002742960        2.6475162079
C                -5.2808532096        0.2351532666        2.5842820488
N                -4.1456973600        0.4770528263        1.7220523302
N                -1.9074016481        0.1506560282        0.0703827552
C                -1.0186772854       -0.1469760695       -0.9045922209
C                 0.2874180254        0.4942965064       -0.9406734812
C                 0.9646455920        0.7388042262        0.2500296370
C                 2.2064490330        1.3444464235        0.2557717895
C                 2.7997359797        1.7289076979       -0.9424994611
O                 4.0109665455        2.3419533332       -1.0630125820
C                 4.8135589003        2.4817057162        0.0784898550
C                 5.2383147299        1.1714418503        0.7026018462
C                 5.8180989854        1.1513860326        1.9693659851
C                 6.2009655179       -0.0667431162        2.5008248216
C                 5.9881394799       -1.2185483880        1.7575637085
C                 5.4042172190       -1.0886520151        0.5083073656
N                 5.0424095947        0.0722724016       -0.0073474585
C                 2.1079749867        1.5222350757       -2.1364425695
C                 0.8694520918        0.9185835654       -2.1366734252
C                -1.5882452588       -1.0813856466       -1.7720366324
H                 0.8008378135       -1.3570169089       -2.8108791470
H                 0.3454171723       -2.4921329209       -4.0425049551
H                -3.8973956502       -3.5033112563       -3.5528236561
H                -4.7249791178       -2.2667280833       -1.5258923731
H                -5.1077861449       -0.2926435687       -0.0215747448
H                -3.5781083911       -2.1981936079        1.7881161650
H                -5.0452181827       -2.5337573329        0.8566315690
H                -4.9454162759       -1.6726267099        3.5809802188
H                -6.3950930060       -1.6383822477        2.5773540456
H                -5.1063001373        0.6883177859        3.5613100280
H                -6.2229840588        0.6434390279        2.1763626315
H                -4.0626712342        1.4309848690        1.3958341246
H                 0.4991893517        0.4454519420        1.1780756942
H                 2.7036692320        1.5053030401        1.1999785227
H                 4.3215681407        3.1100713019        0.8366179945
H                 5.7054578396        3.0128954063       -0.2738157901
H                 5.9616109839        2.0702558202        2.5179674519
H                 6.6545584867       -0.1189204838        3.4801885591
H                 6.2676520431       -2.1881111111        2.1387252738
H                 5.2136666478       -1.9510352906       -0.1168968736
H                 2.5644479679        1.8539793479       -3.0557012820
H                 0.3321341578        0.8036269863       -3.0669077356



