%chk=calculation/no_transfer_pubchem_sampling_4_b3lyp/146255698_rwf.chk
%rwf=calculation/no_transfer_pubchem_sampling_4_b3lyp/146255698_rwf.rwf
%nprocshared=14
%mem=3GB
#p b3lyp/6-31g(d) 6D 10F nosymm GFInput td=(50-50,nstate=2) SCF=XQC 

Gaussian input prepared by ASE

0 1
N                -0.1514227412       -1.8361407885       -3.5400997927
C                -1.4103125429       -1.8887207265       -2.9992630096
N                -2.2926904397       -2.6680057662       -3.5981537281
C                -3.5566433649       -2.7237289841       -3.0756550443
C                -3.9550540036       -2.0801661087       -1.9478779418
N                -3.0169804056       -1.2811567670       -1.3031862678
C                -3.0804908964       -0.5511973886       -0.1477904613
C                -4.3189560098       -0.4753220945        0.6973246377
C                -4.6767932707       -1.7554549066        1.5018142516
C                -5.4791251166       -1.2155219230        2.7191550392
C                -5.3712155918        0.3248538094        2.6031409944
N                -4.1884039127        0.5053714985        1.7661154193
N                -1.9412775078        0.0903810849        0.0694681372
C                -1.0920802383       -0.2131273549       -0.9587524406
C                 0.2577143142        0.3740504585       -0.9942471015
C                 0.9550833651        0.5693948703        0.2073100651
C                 2.2254028372        1.1428478815        0.2315608360
C                 2.8304741301        1.5452984649       -0.9658977817
O                 4.0616240257        2.1300962813       -1.0718385265
C                 4.8106760109        2.4051638578        0.1016655424
C                 5.4542382648        1.1841606916        0.7419748052
C                 5.5149827473        1.0594394393        2.1345953386
C                 6.1657959234       -0.0438283345        2.6851688487
C                 6.7233002429       -0.9878669855        1.8255746361
C                 6.6058542696       -0.7754725270        0.4503052137
N                 5.9959256534        0.2838608022       -0.0900631097
C                 2.1407900850        1.3754515201       -2.1739404438
C                 0.8720982795        0.8084791214       -2.1849740415
C                -1.7306811364       -1.0975919132       -1.8406697324
H                 0.6183031144       -1.5531450262       -2.9497336496
H                 0.0405153542       -2.5701284228       -4.2095914419
H                -4.2626934449       -3.3524813686       -3.6106970639
H                -4.9412348992       -2.1477616211       -1.5113699002
H                -5.1773236552       -0.2524380745        0.0250732711
H                -3.7541168678       -2.2428298216        1.8288798626
H                -5.2439831051       -2.4754915823        0.9041844629
H                -5.0376431297       -1.5688222496        3.6552120878
H                -6.5234841305       -1.5421352175        2.7059899304
H                -5.2369230655        0.8201519972        3.5706571923
H                -6.2938380439        0.7298523975        2.1446691897
H                -4.0596867217        1.4522311875        1.4199398147
H                 0.4855611406        0.2640871234        1.1369318051
H                 2.7366040429        1.2527269053        1.1806584386
H                 4.1996032502        2.9451683458        0.8379265636
H                 5.5987720537        3.0844646310       -0.2402158176
H                 5.0576945748        1.8108220165        2.7733222816
H                 6.2277570876       -0.1664373384        3.7631913088
H                 7.2351401681       -1.8671117178        2.2050376726
H                 7.0282968040       -1.4907863890       -0.2539950191
H                 2.6106155604        1.7167644732       -3.0910865060
H                 0.3402339413        0.7236265389       -3.1277458252



