%chk=calculation/no_transfer_pubchem_sampling_4_b3lyp/150328286_rwf.chk
%rwf=calculation/no_transfer_pubchem_sampling_4_b3lyp/150328286_rwf.rwf
%nprocshared=14
%mem=3GB
#p b3lyp/6-31g(d) 6D 10F nosymm GFInput td=(50-50,nstate=2) SCF=XQC 

Gaussian input prepared by ASE

0 1
C                -7.7014825344       -1.1764436849        1.3043208732
C                -7.3415599398       -1.7444078903       -0.0753825315
C                -5.9990791323       -2.5068327836       -0.1428390730
C                -4.7598533572       -1.6734485731       -0.5154249928
C                -4.3613305845       -0.5786651281        0.4968509577
C                -3.0682211660        0.1175986380        0.1324486320
C                -1.8637663871       -0.2307874908        0.7339547306
C                -0.6298396612        0.3663265968        0.3982127116
C                 0.5818744972       -0.0750247125        1.0944634374
C                 1.8713407925       -0.0869219074        0.6672528997
C                 2.3610448990        0.2180294550       -0.6579605056
C                 3.6659957824        0.3339617593       -1.0330538305
C                 4.8280355458        0.2650284843       -0.1822442863
C                 6.0945387830        0.3784250956       -0.6512417692
C                 7.3402018358        0.3256441173        0.1114609338
C                 8.5628602689        0.4644770719       -0.5742996315
C                 9.7813191855        0.4217969820        0.0994549671
C                 9.8103256210        0.2386809171        1.4826795215
C                 8.6069046744        0.0990796987        2.1816853258
C                 7.3905247897        0.1415331254        1.5087271864
C                -0.6561367912        1.3931465238       -0.5587852895
C                -1.8473087011        1.7744389298       -1.1761230515
C                -3.0470152268        1.1362337142       -0.8464663516
O                -4.2569386545        1.4465972300       -1.4053476989
C                -4.3110378751        2.4835129404       -2.3716121378
H                -7.7589506984       -1.9775647726        2.0518166173
H                -8.6769596778       -0.6761307207        1.2805536411
H                -6.9656601352       -0.4481622688        1.6599702361
H                -7.3372071206       -0.9354676937       -0.8198060323
H                -8.1474595051       -2.4252916994       -0.3800769669
H                -6.0866188893       -3.3029476845       -0.8943486989
H                -5.8236626350       -3.0198644767        0.8147413636
H                -4.9219518284       -1.2032209173       -1.4939100628
H                -3.9073370713       -2.3552052637       -0.6385356731
H                -5.1627065730        0.1641394596        0.5644499301
H                -4.2533533991       -1.0296409726        1.4919349179
H                -1.8746509404       -1.0104282367        1.4937484896
H                 0.4030997220       -0.4642763873        2.0967386162
H                 2.6103746320       -0.4203600741        1.3933930413
H                 1.6122396649        0.3209739635       -1.4391227275
H                 3.8684395147        0.5047334838       -2.0902664550
H                 4.6635470442        0.1229826262        0.8834752292
H                 6.2207056981        0.5282951366       -1.7243214223
H                 8.5481169508        0.6075313871       -1.6524919654
H                10.7088395431        0.5317387551       -0.4564204055
H                10.7583741356        0.2047521736        2.0124285391
H                 8.6186357184       -0.0438082524        3.2591999502
H                 6.4693742327        0.0308537947        2.0733158323
H                 0.2535540806        1.9336995910       -0.7971009934
H                -1.8302066977        2.5803687523       -1.9010265689
H                -3.6959527298        2.2488220551       -3.2502779932
H                -3.9864232476        3.4444222473       -1.9511481528
H                -5.3575944520        2.5570788860       -2.6731673130



