%chk=./calculation/no_transfer_pubchem_sampling_4_b3lyp/150328286.chk
%nprocshared=7
%mem=6GB
#p b3lyp/6-31g(d) opt SCF=XQC 

Gaussian input prepared by ASE

0 1
C                -7.7045466603       -1.1617458374        1.0577972607
C                -7.1668071129       -1.5722667772       -0.3091495575
C                -5.8925491833       -2.4253273731       -0.2260145513
C                -4.6055068057       -1.6456629789       -0.4955269509
C                -4.3146040172       -0.5616245143        0.5474540952
C                -3.0012164746        0.1049421771        0.2586315366
C                -1.8473359502       -0.2723920230        0.9123846561
C                -0.6045140254        0.3015815526        0.6254514936
C                 0.5732515595       -0.1464621785        1.3477504553
C                 1.8315314063       -0.2331176090        0.8752785686
C                 2.2252588060       -0.0479234476       -0.4896782880
C                 3.4922209801        0.0689526531       -0.9483384699
C                 4.6796932736        0.1317126147       -0.1561660621
C                 5.9077414326        0.2584962498       -0.6955087196
C                 7.1677772461        0.3306410037        0.0110563170
C                 8.3500374270        0.4480708657       -0.7287159527
C                 9.5796141167        0.5193016662       -0.1058302925
C                 9.6623556427        0.4757919590        1.2764897646
C                 8.5022451736        0.3606111809        2.0260490869
C                 7.2716277137        0.2888295042        1.4052108753
C                -0.5650884146        1.3217651711       -0.3214262613
C                -1.7115591907        1.7246368761       -0.9822359337
C                -2.9307968643        1.1152650598       -0.7158072398
O                -4.1078602545        1.4412742722       -1.3272193535
C                -4.1079546855        2.4683004727       -2.2854523563
H                -7.9684808706       -2.0421080904        1.6406643426
H                -8.5970409718       -0.5492908639        0.9451528238
H                -6.9673581623       -0.5918440740        1.6164344044
H                -6.9652898380       -0.6799154498       -0.9046811657
H                -7.9467007522       -2.1367077108       -0.8255023532
H                -5.9498842384       -3.2298450914       -0.9630481543
H                -5.8320355476       -2.8930537241        0.7590697629
H                -4.6666624357       -1.1773325888       -1.4795919408
H                -3.7663146470       -2.3465589140       -0.5127160359
H                -5.1046100014        0.1883711374        0.5167124054
H                -4.2876040351       -1.0130894626        1.5412047345
H                -1.9030842127       -1.0515975867        1.6599670916
H                 0.3902928369       -0.4471599902        2.3725304140
H                 2.6070174364       -0.5306831004        1.5686823134
H                 1.4206055029       -0.0446123172       -1.2136117374
H                 3.6410398799        0.1423640398       -2.0191672690
H                 4.5624033949        0.0806727820        0.9157407046
H                 5.9862546721        0.3138786050       -1.7756072905
H                 8.2939337037        0.4825942764       -1.8079858663
H                10.4787977367        0.6092505530       -0.6983347629
H                10.6231121923        0.5315479328        1.7665588091
H                 8.5603725170        0.3268052680        3.1046746664
H                 6.3819797139        0.2006962025        2.0097859612
H                 0.3626947326        1.8375433645       -0.5165426752
H                -1.6402131274        2.5242740777       -1.7031512070
H                -3.4649381680        2.2253697216       -3.1379884662
H                -3.7925398954        3.4240663333       -1.8539032732
H                -5.1387605540        2.5527161305       -2.6273543572



