%chk=calculation/no_transfer_pubchem_sampling_4_b3lyp/153459192_rwf.chk
%rwf=calculation/no_transfer_pubchem_sampling_4_b3lyp/153459192_rwf.rwf
%nprocshared=14
%mem=3GB
#p b3lyp/6-31g(d) 6D 10F nosymm GFInput td=(50-50,nstate=2) SCF=XQC 

Gaussian input prepared by ASE

0 1
C                -7.5689924236        3.6459097185        1.0783526289
C                -7.4442036695        2.4016878683        0.2142576235
O                -8.3932966218        1.9612975106       -0.4069247821
C                -6.0613078838        1.7552420669        0.1528340620
C                -6.0373154488        0.3517534859       -0.4694780939
C                -6.8021683473       -0.6729389006        0.4064169678
C                -6.3231610113       -2.1032803807        0.1316387900
C                -4.8454000814       -2.2974650543        0.5395892722
C                -4.0199891482       -0.9925426518        0.3992357900
C                -2.5488457756       -1.2486366019        0.2124839469
N                -2.0642658248       -2.3570195663       -0.2399869124
N                -0.6504596373       -2.2493974510       -0.3270092091
C                -0.2590809256       -1.0692270320        0.0802708306
C                 1.1251398656       -0.6317131102        0.1241502958
C                 1.4117067314        0.6683229674        0.5837250623
C                 2.6931296802        1.1810510365        0.6586271315
C                 3.7762504433        0.3688773471        0.2610919064
C                 5.1728071215        0.8028371970        0.3611173212
C                 6.3161132482        0.0052923455        0.5594124689
C                 7.4558837952        0.8084019837        0.5989257922
C                 7.0351909572        2.1294706292        0.4233560286
C                 7.6658378695        3.3728496397        0.3548475936
C                 6.8944156634        4.5058130092        0.1457712151
C                 7.4675164939        5.8081044029        0.0663241569
N                 7.9244316742        6.8773756656       -0.0000619525
C                 5.4774572734        4.3363443919        0.0042772822
N                 4.8491966427        3.1931360640        0.0639739496
N                 5.6212770270        2.0985786026        0.2843789501
C                 3.5249534187       -0.9261673011       -0.2037686122
C                 2.2228935655       -1.4700195250       -0.2886020699
N                 1.9745588972       -2.7304505772       -0.7457565758
C                 2.9080824963       -3.7570998831       -1.2180014315
C                 3.6387406302       -3.3743767847       -2.5181436503
C                 3.8603834777       -4.2728551186       -0.1238390306
C                -1.4579168041       -0.2468579645        0.4935862070
C                -4.5873554724       -0.1282956251       -0.7560961661
H                -7.4972477643        3.3677540636        2.1380716300
H                -8.5330789116        4.1268004644        0.9008272556
H                -6.7548710565        4.3529359283        0.8784377963
H                -5.6239111748        1.7532004389        1.1626958361
H                -5.4308031885        2.4442003029       -0.4328456669
H                -6.5611467993        0.4231810887       -1.4301775413
H                -7.8762003359       -0.5722607050        0.2257556157
H                -6.6438966746       -0.4433224980        1.4717280138
H                -6.9526283342       -2.8273833790        0.6619789610
H                -6.4488977744       -2.3194695480       -0.9379797572
H                -4.3807887064       -3.0780383253       -0.0691898356
H                -4.7832017430       -2.6384215950        1.5805456980
H                -4.1249692030       -0.4018845174        1.3222815271
H                 0.5857200225        1.2998815982        0.8981298093
H                 2.8619078640        2.1871343090        1.0156795604
H                 6.2877691809       -1.0670328377        0.6941378510
H                 8.4786377362        0.4918418818        0.7496898068
H                 8.7436941765        3.4360989398        0.4608436296
H                 4.8420402568        5.1994463934       -0.1694007103
H                 4.3612549481       -1.5245255929       -0.5349311496
H                 0.9849481557       -2.9808505877       -0.7536827579
H                 2.2491622768       -4.5961406407       -1.4713852747
H                 2.9181291241       -3.0608745736       -3.2801225434
H                 4.3541045900       -2.5587700560       -2.3771077061
H                 4.1920547673       -4.2389236386       -2.9027756142
H                 4.5894362385       -3.5196293443        0.1896554967
H                 3.2929497856       -4.5795794351        0.7605571468
H                 4.4180794439       -5.1409297578       -0.4936811222
H                -1.5668386568        0.6752617081       -0.0910159412
H                -1.4307297313        0.0471849901        1.5509867040
H                -4.5657353850       -0.7357481057       -1.6691010560
H                -3.9371480245        0.7348606262       -0.9495844488



