%chk=./calculation/no_transfer_pubchem_sampling_4_b3lyp/154027315.chk
%nprocshared=7
%mem=6GB
#p b3lyp/6-31g(d) opt SCF=XQC 

Gaussian input prepared by ASE

0 1
C                 6.4894203642        0.8921007804        0.4804351875
O                 6.0415097026        0.8464634169       -0.8495018639
C                 4.7477539566        0.4628703951       -1.0872704841
C                 4.3560733182        0.4456710939       -2.4241299241
C                 3.0786040070        0.0490946661       -2.7555055300
C                 2.1660376379       -0.3227899023       -1.7756380799
C                 2.5326335175       -0.2804184159       -0.4350912902
C                 3.8296105791        0.1055849905       -0.1120696780
Si                1.2752862745       -0.6820950845        0.9446890057
C                 1.6547966394        0.6604981414        2.2544611686
C                 1.6176732503       -2.4788988175        1.4873121972
C                -0.3556529890       -0.4208698711        0.0047400913
C                -0.3552102557       -0.3695304792       -1.3795314675
C                -1.5100178280        0.0451165774       -2.0409443722
C                -2.6734287587        0.3726590821       -1.3773016769
C                -2.7322724580        0.2274452310        0.0195634446
C                -1.5504920871       -0.1541835084        0.6910887743
C                -1.5408375800       -0.3125465417        2.1275498634
O                -0.6343115718       -0.8652565935        2.7260563240
C                -2.7277898216        0.2938840089        2.8460934914
C                -4.0026041706       -0.0037218523        2.0752145391
N                -3.8943792715        0.4464665040        0.7055376885
C                -5.1416997834        0.7071168748        0.0142229485
C                -5.1215187677        0.2111919462       -1.4257916799
C                -3.9029351881        0.7988777876       -2.1262632100
C                 0.8173100140       -0.8403621501       -2.1911145007
H                 6.4465130961       -0.0939637927        0.9556920463
H                 7.5264933297        1.2219667730        0.4322203996
H                 5.9111861821        1.6058353486        1.0772612065
H                 5.0692391339        0.7374336950       -3.1790172492
H                 2.7877765900        0.0248858369       -3.7971250371
H                 4.1154760274        0.1125461889        0.9270553312
H                 2.7070402940        0.6498062697        2.5160275069
H                 1.0946111411        0.5103057271        3.1678946394
H                 1.4211125576        1.6495304712        1.8703886046
H                 2.6654980416       -2.5994597758        1.7434216612
H                 1.3921278772       -3.1779879591        0.6875574773
H                 1.0231492112       -2.7481068878        2.3515126469
H                -1.5027106416        0.1114425797       -3.1211598916
H                -2.7900070399       -0.0880480155        3.8652747939
H                -2.5614999344        1.3745095961        2.8877711097
H                -4.8452533884        0.5128920262        2.5434019437
H                -4.2061132705       -1.0879253214        2.1051244519
H                -5.3351308570        1.7894600663        0.0233860600
H                -5.9525215317        0.2174440007        0.5618791500
H                -5.0551076931       -0.8787601712       -1.4380525379
H                -6.0451122452        0.5068160615       -1.9245061504
H                -3.9773930629        1.8905611798       -2.1357569629
H                -3.8484410838        0.4598618696       -3.1617813958
H                 0.6476122796       -0.6006379343       -3.2433835453
H                 0.8478992568       -1.9347781123       -2.1118992259



