%chk=calculation/no_transfer_pubchem_sampling_4_b3lyp/155722800_rwf.chk
%rwf=calculation/no_transfer_pubchem_sampling_4_b3lyp/155722800_rwf.rwf
%nprocshared=14
%mem=3GB
#p b3lyp/6-31g(d) 6D 10F nosymm GFInput td=(50-50,nstate=2) SCF=XQC 

Gaussian input prepared by ASE

0 1
C                -6.1806614217        3.8149437895        1.3118363311
N                -4.9796057224        3.1994539301        1.8404955380
C                -4.3743605529        2.1097604248        1.2398068280
C                -4.6942919548        1.6986904782       -0.0685562738
C                -4.0312120729        0.6231033927       -0.6529037587
C                -3.0390311395       -0.0954995784        0.0324417243
C                -2.3314559296       -1.2311320039       -0.5859868278
C                -0.9636876976       -1.4572382446       -0.7057468966
C                 0.1093691133       -0.5400082305       -0.2788436975
C                 1.2009637213       -0.9726897507        0.4962286010
C                 2.1945638976       -0.0750450868        0.8725166669
C                 2.0601939802        1.2546302862        0.4562925015
O                 2.9471973046        2.2415911904        0.8321602844
C                 4.2836693958        1.9643803775        1.0138046472
C                 4.9114096521        2.5534816185        2.1135012779
C                 6.2806477512        2.3724813444        2.3039054978
C                 7.0248340543        1.6033837619        1.4100031551
C                 6.3855617907        1.0228268950        0.3110639601
C                 7.1928620954        0.2506504893       -0.6989257674
F                 6.4446837042       -0.6733434420       -1.3438875049
F                 8.2289405117       -0.3976930138       -0.1220720258
F                 7.7167777063        1.0618436018       -1.6464482765
C                 5.0176982768        1.2031044387        0.1013108085
N                 1.0434925212        1.7001004842       -0.2687908505
C                 0.1002691836        0.8227373764       -0.6230689877
C                -0.8170152002       -2.7431184020       -1.3428956934
C                 0.2212678101       -3.5731274635       -1.8312039288
N                 1.5529507839       -3.2522119686       -1.7309799727
N                -0.0652171197       -4.7576064421       -2.3938502071
C                -1.3551252227       -5.1136943818       -2.4980692172
N                -2.4313247057       -4.4190842905       -2.1355985957
C                -2.1156614230       -3.2429261239       -1.5744938844
N                -3.0242093236       -2.3199957988       -1.1199603652
C                -4.4601899324       -2.5539510493       -1.0994670844
C                -2.7301479188        0.3171292065        1.3429157498
C                -3.3768717027        1.3913416480        1.9329372878
H                -6.4976805530        4.6061449157        1.9956292073
H                -5.9818152103        4.2791544439        0.3387375823
H                -7.0142743319        3.1050680023        1.1878282440
H                -4.8725046444        3.2449612518        2.8438186220
H                -5.4524324504        2.2260395642       -0.6374569377
H                -4.2823217070        0.3487710713       -1.6739878541
H                 1.2627665619       -2.0100142612        0.8120310650
H                 3.0335488400       -0.3905180589        1.4825676059
H                 4.3160078897        3.1466141580        2.7999853712
H                 6.7678442906        2.8281215878        3.1609412481
H                 8.0873559576        1.4497744230        1.5633523455
H                 4.5294848174        0.7586948162       -0.7580412158
H                -0.7143317411        1.2206084875       -1.2234257656
H                 1.8029028516       -2.2753673007       -1.6744388856
H                 2.1604470748       -3.8300174185       -2.2981619723
H                -1.5383120619       -6.0871123994       -2.9491491198
H                -4.9732480454       -1.9830490683       -1.8803704531
H                -4.8735517871       -2.2731093312       -0.1277048972
H                -4.6190994968       -3.6176695716       -1.2819224928
H                -1.9740236669       -0.2228467363        1.9048435928
H                -3.1140438013        1.6884829619        2.9461386662



