%chk=./calculation/no_transfer_pubchem_sampling_4_b3lyp/155722800.chk
%nprocshared=7
%mem=6GB
#p b3lyp/6-31g(d) opt SCF=XQC 

Gaussian input prepared by ASE

0 1
C                -6.0641381011        3.8071107312        1.3080803024
N                -4.8652736512        3.1741602976        1.7937697910
C                -4.2952906058        2.0829050813        1.1935188542
C                -4.6540816246        1.6556515245       -0.0878816771
C                -4.0143539661        0.5842670783       -0.6759929133
C                -2.9978993461       -0.1025423951       -0.0160489655
C                -2.2961758355       -1.2208536575       -0.6338819790
C                -0.9296162513       -1.4420891948       -0.6691592790
C                 0.0933939865       -0.5541799745       -0.1406897952
C                 1.1690183008       -1.0425890328        0.6077390646
C                 2.1222182098       -0.1676162872        1.0882192501
C                 1.9689759080        1.1888834560        0.8013014672
O                 2.8320943383        2.1368702765        1.2887260698
C                 4.1716710859        1.9360550178        1.2195340341
C                 4.9708886136        2.6607372602        2.1049084962
C                 6.3446754194        2.5349214601        2.0664474870
C                 6.9519519043        1.6865614085        1.1538920472
C                 6.1546831391        0.9768915873        0.2689675415
C                 6.7715013824        0.0769448547       -0.7629860001
F                 6.0511428289       -1.0426200251       -0.9632305183
F                 8.0101673165       -0.3222831269       -0.4453521042
F                 6.8651530671        0.6728850517       -1.9680299833
C                 4.7731170178        1.0994067333        0.2846078207
N                 0.9511193188        1.6679399365        0.1097603528
C                 0.0418819536        0.8267088280       -0.3420459948
C                -0.7352128472       -2.6954138438       -1.3262644724
C                 0.3260050101       -3.4989800073       -1.7870057525
N                 1.6376252259       -3.1846745187       -1.6273892230
N                 0.0591337115       -4.6595830259       -2.3846469460
C                -1.2031569983       -5.0171894346       -2.5635854625
N                -2.2861985388       -4.3382800002       -2.2503082183
C                -2.0251804293       -3.1793963256       -1.6429998004
N                -2.9483574633       -2.2777083534       -1.2255177868
C                -4.3650285975       -2.4911831007       -1.3251730709
C                -2.6409043819        0.3229628607        1.2657236563
C                -3.2764266247        1.3877541759        1.8583404294
H                -6.3142786555        4.6373466304        1.9646019075
H                -5.8961514618        4.2041357463        0.3053324948
H                -6.9175038332        3.1183090473        1.2722834966
H                -4.6808399109        3.2685139746        2.7796046562
H                -5.4324954181        2.1657604870       -0.6322944496
H                -4.2933943429        0.2938906898       -1.6779381193
H                 1.2388480037       -2.0981070091        0.8273203924
H                 2.9537539027       -0.5139035472        1.6833986399
H                 4.4889543791        3.3179893386        2.8109441792
H                 6.9527427001        3.0985474898        2.7565551017
H                 8.0241454630        1.5768062891        1.1271473258
H                 4.1745035566        0.5544283611       -0.4297208455
H                -0.7655436607        1.2743233647       -0.9044099460
H                 1.8947322347       -2.2284955072       -1.4562316231
H                 2.2901131688       -3.7657568818       -2.1269275377
H                -1.3576745356       -5.9740519520       -3.0443958239
H                -4.7707927488       -2.0280928519       -2.2279143665
H                -4.8683534030       -2.0752301502       -0.4524521771
H                -4.5352802751       -3.5654638970       -1.3837828215
H                -1.8647327344       -0.2032860245        1.8014243607
H                -2.9898719045        1.6999020865        2.8527934335



