%chk=./calculation/no_transfer_pubchem_sampling_4_b3lyp/156796350.chk
%nprocshared=7
%mem=6GB
#p b3lyp/6-31g(d) opt SCF=XQC 

Gaussian input prepared by ASE

0 1
C                 5.1898551904       -0.1206806527        0.1639966121
C                 4.2920977521       -0.8082204637       -0.8671961618
C                 2.8603170391       -0.4028352871       -0.6686796051
C                 2.3394139243        0.7210242333       -1.2985252069
C                 1.0324372992        1.1128327290       -1.0868041785
C                 0.1872184954        0.4018902002       -0.2354421305
C                -1.1911742959        0.8279274849       -0.0249596221
C                -1.6061436241        2.1181424463        0.1712490984
N                -2.9609106114        2.1576959633        0.3317700567
C                -3.4596040936        0.8899904816        0.2276729620
C                -4.7688307246        0.4324171101        0.2983462887
C                -4.9816946073       -0.9182611205        0.1273554452
C                -3.9199780301       -1.7923949132       -0.1187243227
C                -2.6199908224       -1.3446789389       -0.1894762572
C                -2.3716469512        0.0140047254        0.0005644801
C                 0.7360088782       -0.7090015410        0.4012575604
F                -0.0082605803       -1.4133267906        1.2851892811
C                 2.0395283709       -1.1139713203        0.1956874166
H                 6.2273513883       -0.4134811618        0.0208438820
H                 5.1165752679        0.9602408594        0.0678126633
H                 4.8865401223       -0.3952961314        1.1716505419
H                 4.6187965913       -0.5299410077       -1.8710122413
H                 4.3885281390       -1.8904655526       -0.7629251304
H                 2.9653664013        1.2914409968       -1.9695000756
H                 0.6398033554        1.9798534075       -1.5969789403
H                -1.0173585764        3.0134013200        0.2365458803
H                -3.5034981087        2.9850587933        0.5118950674
H                -5.5881605384        1.1138506418        0.4767600149
H                -5.9869419625       -1.3101018521        0.1774678008
H                -4.1306748633       -2.8425817018       -0.2579357473
H                -1.8117049056       -2.0310475596       -0.3868672402
H                 2.4067370806       -1.9834853978        0.7198328081



