%chk=./calculation/no_transfer_pubchem_sampling_4_b3lyp/160620391.chk
%nprocshared=7
%mem=6GB
#p b3lyp/6-31g(d) opt SCF=XQC 

Gaussian input prepared by ASE

0 1
C                 6.7621279393        1.0500874453        2.4893931227
C                 5.9973303924        0.5782743541        1.2693648359
C                 6.5123250598        1.1712321413       -0.0227928063
S                 4.2675017350        1.1472698141        1.5372520568
O                 4.2454580611        2.5851706691        1.4788272064
O                 3.7902741897        0.5297679651        2.7481032545
C                 3.2543679884        0.4755788345        0.1582928847
C                 3.0055952813        1.5257101255       -0.9040703744
C                 2.1341813037        1.0343587430       -2.0643679458
C                 0.7071762278        0.6473200114       -1.6509282371
C                 0.5204524786       -0.8618750791       -1.4885903177
C                -0.8309646547       -1.2383848345       -0.8814678418
C                -2.0203106231       -0.8937678793       -1.7864319745
C                -3.2968280762       -1.3966271691       -1.1759643725
C                -3.7667905539       -2.6723843248       -1.4632872664
C                -4.9237909683       -3.1440438148       -0.8665783837
C                -5.6243416263       -2.3551959780        0.0242694944
C                -5.1674277620       -1.0722813239        0.3290242036
C                -5.8857634702       -0.2243053093        1.2609967235
C                -7.0392019964       -0.4289777192        1.9787187840
C                -7.2624146632        0.7496187080        2.7231256646
C                -6.2362770824        1.5875687132        2.4106605399
O                -5.4032527028        1.0120704235        1.5325546221
C                -4.0011026253       -0.6092100363       -0.2796142555
H                 6.2847872615        0.6666644136        3.3878432869
H                 6.7414865042        2.1369344956        2.5277052931
H                 7.7964496938        0.7123543486        2.4601890604
H                 5.9384442027       -0.5094807439        1.2383662643
H                 6.3086365363        2.2401088754       -0.0231791314
H                 6.0333901189        0.7186806717       -0.8878846470
H                 7.5871815991        1.0218215734       -0.1108885232
H                 2.3346175462        0.1531523082        0.6380217177
H                 3.7905861023       -0.3904960400       -0.2224128160
H                 2.5337867453        2.3865749790       -0.4284444588
H                 3.9628906633        1.8658231321       -1.3023665406
H                 2.6177309231        0.1810957329       -2.5453380185
H                 2.0912531992        1.8397138681       -2.7997590158
H                 0.4531692074        1.1479220903       -0.7148087860
H                 0.0097725308        1.0033856387       -2.4102282208
H                 0.6218908430       -1.3413798384       -2.4656578266
H                 1.3074490702       -1.2593453024       -0.8452707217
H                -0.9542346109       -0.7314741488        0.0781002120
H                -0.8440700620       -2.3139910538       -0.6884151994
H                -1.8694971209       -1.3542145109       -2.7652304373
H                -2.0795990592        0.1871419493       -1.9178732047
H                -3.2264038467       -3.2969072006       -2.1602732307
H                -5.2819059589       -4.1362845254       -1.0999846945
H                -6.5251678026       -2.7290903488        0.4843722204
H                -7.6535225441       -1.3055387600        1.9792773867
H                -8.0725205329        0.9445420811        3.3957045336
H                -5.9966852968        2.5810037665        2.7351667219
H                -3.6482397647        0.3843070687       -0.0454918414



