%chk=./calculation/no_transfer_pubchem_sampling_4_b3lyp/1613073.chk
%nprocshared=7
%mem=6GB
#p b3lyp/6-31g(d) opt SCF=XQC 

Gaussian input prepared by ASE

0 1
C                 5.5395287879        3.6729734795       -2.3832579385
C                 4.7609775021        2.5528944167       -3.0765222305
C                 4.0275512174        1.7226794341       -2.0624144981
C                 2.7356026366        2.0547645244       -1.6750003675
C                 2.0744624383        1.3249830499       -0.7057453876
C                 2.7071322209        0.2411152455       -0.1179626362
N                 2.0137796539       -0.5168169455        0.8812503933
C                 2.5781586821       -0.5820093480        2.1386606911
O                 3.6148521544       -0.0412943249        2.4343738586
N                 1.8641560325       -1.3253822239        3.0497499789
C                 0.6320917965       -1.9440446552        2.8963445955
O                 0.1647053890       -2.5535461751        3.8345788603
C                 0.0431247299       -1.7773030986        1.5763195887
C                -1.2306405974       -2.1120016550        1.1926607946
C                -2.3409737212       -2.6587920076        1.8566134103
C                -2.5032689568       -3.3269543408        3.0768976086
C                -3.8436343353       -3.6683846747        3.1953235641
C                -4.4849185736       -3.1990346053        2.0631010256
N                -3.5894416266       -2.6138714454        1.2535771573
C                -3.9052614952       -1.9149783333        0.0292788447
C                -3.5547118560       -0.4441350132        0.1492504286
C                -4.0224575274        0.2257208374        1.2527665887
C                -3.6901803193        1.5636725368        1.4935714552
C                -2.8707268770        2.2256830296        0.6254568863
C                -2.3760149473        1.5832123281       -0.5275802120
C                -1.5238721013        2.2651074549       -1.4218630835
C                -1.0397327133        1.6498808633       -2.5401665028
C                -1.4032300282        0.3259742258       -2.8176441737
C                -2.2281366114       -0.3612075099       -1.9729730757
C                -2.7312089911        0.2303549597       -0.7927920033
C                 0.8241634572       -1.1297202159        0.5086794461
O                 0.4612638871       -1.0988221383       -0.6506524617
C                 3.9935990329       -0.1086593905       -0.4931133815
C                 4.6468959003        0.6370169931       -1.4565223366
H                 6.0752099869        4.2739342128       -3.1145235461
H                 6.2577875245        3.2550487170       -1.6819365972
H                 4.8609488241        4.3189677531       -1.8310173435
H                 4.0514711314        2.9903420254       -3.7816113475
H                 5.4565691429        1.9249102098       -3.6364231914
H                 2.2408127528        2.8984034707       -2.1342129332
H                 1.0684477984        1.5842591161       -0.4125848968
H                 2.2861483721       -1.4062498532        3.9685303081
H                -1.4076156134       -1.8504977563        0.1543193008
H                -1.7156562577       -3.5340906863        3.7704113738
H                -4.3044393036       -4.1941336430        4.0075308852
H                -5.5242618408       -3.2567362398        1.7984143261
H                -4.9796558328       -2.0270858696       -0.1482594134
H                -3.3769817008       -2.3888087772       -0.8008112239
H                -4.6497611816       -0.2922896153        1.9650669963
H                -4.0764972978        2.0555166965        2.3735521076
H                -2.5888829214        3.2527942621        0.8076039644
H                -1.2603309555        3.2894107838       -1.1969299653
H                -0.3782162013        2.1730026664       -3.2141852267
H                -1.0200509175       -0.1544721646       -3.7045794497
H                -2.4903175863       -1.3766460241       -2.2276113165
H                 4.4798851140       -0.9521634156       -0.0283881162
H                 5.6517507232        0.3663348534       -1.7466035824



