%chk=calculation/no_transfer_pubchem_sampling_4_b3lyp/1613073_rwf.chk
%rwf=calculation/no_transfer_pubchem_sampling_4_b3lyp/1613073_rwf.rwf
%nprocshared=14
%mem=3GB
#p b3lyp/6-31g(d) 6D 10F nosymm GFInput td=(50-50,nstate=2) SCF=XQC 

Gaussian input prepared by ASE

0 1
C                 7.1676029408        3.0478233728       -1.9203758588
C                 5.9513196573        2.4067909734       -2.6131592880
C                 5.0768678732        1.6233456127       -1.6570355496
C                 4.0297868503        2.2456218157       -0.9643792247
C                 3.2497487409        1.5407337214       -0.0504424151
C                 3.5051565405        0.1896274288        0.1768549863
N                 2.6948929899       -0.5487144659        1.1191084499
C                 3.3087566992       -0.9590960681        2.3094620463
O                 4.4697556875       -0.7249435852        2.5843690193
N                 2.4868096974       -1.6693582859        3.1712611237
C                 1.1454397895       -2.0229550833        3.0216811282
O                 0.6038008637       -2.6590773680        3.9196210336
C                 0.5346442476       -1.5723151397        1.7711151052
C                -0.7719278243       -1.7801835317        1.3819701206
C                -1.8947907838       -2.4377926646        1.9404686151
C                -2.1307555842       -3.1520499774        3.1324004475
C                -3.4626181227       -3.5786595684        3.1333736677
C                -4.0380951467       -3.1314711257        1.9483780932
N                -3.1132125176       -2.4538786578        1.2245636996
C                -3.4094261919       -1.8075142894       -0.0498046283
C                -3.7906574707       -0.3364116813        0.0468919307
C                -3.8748925278        0.3081680815        1.2623123475
C                -4.2440425659        1.6725513060        1.3455874861
C                -4.5309132251        2.3836222629        0.2066629715
C                -4.4613205559        1.7614852946       -1.0690010434
C                -4.7577551153        2.4786686508       -2.2580974605
C                -4.6908286940        1.8701378725       -3.4907768663
C                -4.3208484486        0.5090688220       -3.5848214712
C                -4.0262955724       -0.2156462250       -2.4501080863
C                -4.0850962580        0.3799341476       -1.1596526348
C                 1.3484765693       -0.8132245223        0.7825782896
O                 0.9048816227       -0.4197125554       -0.2871649044
C                 4.5366582206       -0.4521695632       -0.5057748734
C                 5.3155342214        0.2648960307       -1.4115899278
H                 7.7782693703        3.6056729039       -2.6397564095
H                 7.8010853982        2.2848156270       -1.4544732241
H                 6.8506209720        3.7405879228       -1.1328122889
H                 5.3555859597        3.1924074225       -3.0949270841
H                 6.3012854030        1.7451227527       -3.4155903198
H                 3.8195042376        3.2975774946       -1.1437302128
H                 2.4374193243        2.0311438101        0.4761194076
H                 2.9287819885       -1.9679273588        4.0327894819
H                -0.9553895025       -1.3164974500        0.4151825290
H                -1.3759069596       -3.3188007670        3.8823848082
H                -3.9617562600       -4.1565137950        3.8987174143
H                -5.0456028152       -3.2510341197        1.5730176011
H                -4.2279911591       -2.3774030303       -0.5043299662
H                -2.5497284645       -1.9404964800       -0.7140296151
H                -3.6531180851       -0.2330317395        2.1763982399
H                -4.2969175397        2.1496786495        2.3200712288
H                -4.8150902515        3.4315398845        0.2632648249
H                -5.0401294621        3.5255527310       -2.1753639339
H                -4.9194716384        2.4317375195       -4.3922379355
H                -4.2659307415        0.0319819506       -4.5594640180
H                -3.7416515348       -1.2580668115       -2.5533251411
H                 4.7296308685       -1.5046775286       -0.3243224390
H                 6.1198422856       -0.2418446242       -1.9400632769



