%chk=calculation/no_transfer_pubchem_sampling_4_b3lyp/16444900_rwf.chk
%rwf=calculation/no_transfer_pubchem_sampling_4_b3lyp/16444900_rwf.rwf
%nprocshared=14
%mem=3GB
#p b3lyp/6-31g(d) 6D 10F nosymm GFInput td=(50-50,nstate=2) SCF=XQC 

Gaussian input prepared by ASE

0 1
C                 6.1951105418        3.6067778097       -2.2941508479
C                 4.9844043831        2.7066370235       -2.0245603899
C                 5.3542803115        1.4958027704       -1.1676011072
O                 4.2571631226        0.5987856704       -0.9710663413
C                 3.3405467662        0.8404966903        0.0095105239
C                 3.3518436364        1.9366513518        0.8814516582
C                 2.3694377836        2.0387649331        1.8712995104
C                 1.3773697891        1.0734988455        2.0036147231
C                 1.3445360007       -0.0065740050        1.1086169672
C                 0.3135610817       -1.0801252598        1.3397057793
O                 0.1643401843       -1.5365413973        2.4755493684
N                -0.4178712816       -1.5642652841        0.2796654356
C                -0.5893869268       -0.8700708760       -1.0087851703
C                -1.9663337477       -0.2500576162       -1.1889703746
C                -2.8559455823       -0.7506293665       -2.1492389966
C                -4.1119628545       -0.1667150641       -2.3042850514
C                -4.5031391001        0.9157275497       -1.5142441520
C                -3.6136917579        1.4199247923       -0.5551544322
O                -3.8791990757        2.4739404983        0.2690888858
C                -5.1404400656        3.1157883859        0.1584921604
C                -2.3508402120        0.8343078926       -0.3992616699
C                -1.3129587099       -2.7095891279        0.5237283475
C                -2.4539989871       -2.4453089504        1.5801165767
C                -2.3562773180       -3.4619068221        2.7220133995
S                -1.6860856714       -4.9516076831        1.9208479399
O                -0.9865152261       -5.8333212591        2.8662124591
O                -2.7199099090       -5.4963089505        1.0190957441
C                -0.5232370234       -3.9808803137        0.9094359459
C                 2.3270706779       -0.1232394251        0.1243982324
H                 6.6151747514        4.0053472962       -1.3625466315
H                 6.9929981248        3.0593418500       -2.8104516598
H                 5.9169990205        4.4587505676       -2.9229736208
H                 4.5643789070        2.3415055254       -2.9697534278
H                 4.1910358455        3.2816849289       -1.5320489106
H                 5.7761284739        1.7995287400       -0.2001702115
H                 6.1109343737        0.8920555473       -1.6787722550
H                 4.1128109356        2.7045019578        0.8060318694
H                 2.3914519696        2.8871503996        2.5499221616
H                 0.6362226992        1.1358587911        2.7931930220
H                 0.1739907857       -0.0960075596       -1.0767145365
H                -0.4005285247       -1.5848206948       -1.8191001103
H                -2.5634563861       -1.5896871081       -2.7755095596
H                -4.8016189885       -0.5563959375       -3.0481604030
H                -5.4851202103        1.3534719811       -1.6511585716
H                -5.1332701359        3.9171195753        0.8993896448
H                -5.9655173254        2.4258875002        0.3792402385
H                -5.2879073344        3.5470595843       -0.8403961373
H                -1.6799743250        1.2502357764        0.3475348016
H                -1.8003164146       -2.9020009928       -0.4325659837
H                -2.3737140721       -1.4318811887        1.9734719827
H                -3.4202032835       -2.5400993498        1.0780002830
H                -1.6307290194       -3.1569721981        3.4787793052
H                -3.3131492391       -3.7184173262        3.1821130593
H                 0.3356032280       -3.7563721305        1.5423483056
H                -0.2238499232       -4.5858039219        0.0511423471
H                 2.3497562371       -0.9710034261       -0.5534011256



