%chk=calculation/no_transfer_pubchem_sampling_4_b3lyp/16605457_rwf.chk
%rwf=calculation/no_transfer_pubchem_sampling_4_b3lyp/16605457_rwf.rwf
%nprocshared=14
%mem=3GB
#p b3lyp/6-31g(d) 6D 10F nosymm GFInput td=(50-50,nstate=2) SCF=XQC 

Gaussian input prepared by ASE

0 1
C                 0.6273968656       -2.1833415703       -1.7605407364
C                -0.6521967017       -1.3820904509       -1.8046685422
C                -1.7609400938       -1.8529920114       -2.5112998547
C                -2.9626493255       -1.1451077429       -2.5576884414
C                -3.0401361138        0.0748211955       -1.8908331154
S                -4.5855504327        1.0026928487       -1.8919922755
O                -5.4602401601        0.3485876937       -2.8680576801
O                -4.2442169786        2.4253971209       -1.9737884820
N                -5.2925356619        0.7708153603       -0.3975245175
C                -5.8447274110       -0.5594912525       -0.0842003808
C                -5.8043990843       -0.7624396307        1.4350524166
O                -4.5181570164       -0.4513168487        1.9355755187
C                -4.1884955321        0.9379892213        1.8274586954
C                -5.0027117913        1.6553592358        0.7345816264
C                -1.9506495410        0.5951165707       -1.1933357242
C                -0.7637513833       -0.1403593974       -1.1358614084
N                 0.3613737658        0.3383120327       -0.4264741977
C                 0.3896575883        1.2699276791        0.5750370879
O                -0.5723781881        1.8937226100        1.0021262951
C                 1.7785101630        1.5323953463        1.1851198235
N                 2.8877031160        0.7019916857        0.7220637235
C                 3.2002730195       -0.4725537738        1.4270628375
C                 2.2824475855       -1.0413978841        2.3369656880
C                 2.6102197225       -2.1971887754        3.0342600622
C                 3.8480303735       -2.8277649935        2.8498416756
C                 4.7460865445       -2.2871332889        1.9450964309
C                 4.4409419995       -1.1205316067        1.2251843485
C                 5.4295539130       -0.5993861795        0.2620645396
O                 6.5335630888       -1.1214310019        0.1046512527
C                 4.9894231402        0.5687114033       -0.5240211727
C                 5.8351120232        1.0657507550       -1.5293320659
C                 5.4627828573        2.1461169453       -2.3110137328
C                 4.2106627496        2.7376740772       -2.0960896294
C                 3.3550362785        2.2674843697       -1.1084497493
C                 3.7366150207        1.1819964407       -0.2907838519
H                 0.5048628592       -3.1357534260       -2.2826705200
H                 0.9348031480       -2.4080290504       -0.7309724119
H                 1.4624415296       -1.6577420995       -2.2454822409
H                -1.6817204198       -2.8025723094       -3.0341001637
H                -3.8167467125       -1.5157644266       -3.1127556428
H                -6.8671647272       -0.6555233968       -0.4707789986
H                -5.2303091928       -1.3365056205       -0.5538201984
H                -6.5876936908       -0.1704133109        1.9344446641
H                -5.9881215902       -1.8149296402        1.6695964095
H                -3.1168968688        0.9817354655        1.6120219837
H                -4.3634822553        1.4415963483        2.7916421262
H                -4.4725685488        2.5344614490        0.3652847969
H                -5.9593163289        2.0117479254        1.1370451663
H                -2.0127495615        1.5569571391       -0.7052899773
H                 1.2450910023       -0.1144051340       -0.6191269660
H                 2.0169260000        2.5835189257        1.0100790196
H                 1.6745149036        1.4301034028        2.2673648285
H                 1.3034659170       -0.6031937779        2.4895767102
H                 1.8838488911       -2.6147589141        3.7261271014
H                 4.0930368305       -3.7299511158        3.4018199945
H                 5.7143030693       -2.7400419675        1.7574550056
H                 6.7876167475        0.5628665377       -1.6619442822
H                 6.1232080573        2.5232392932       -3.0857476068
H                 3.8893465114        3.5721728988       -2.7132885170
H                 2.3816510313        2.7308456204       -1.0014117453



