%chk=calculation/no_transfer_pubchem_sampling_4_b3lyp/17769552_rwf.chk
%rwf=calculation/no_transfer_pubchem_sampling_4_b3lyp/17769552_rwf.rwf
%nprocshared=14
%mem=3GB
#p b3lyp/6-31g(d) 6D 10F nosymm GFInput td=(50-50,nstate=2) SCF=XQC 

Gaussian input prepared by ASE

0 1
C                -3.4757587716        3.4810449830       -0.7897384036
C                -4.0363577180        2.0927927095       -1.1293301993
C                -2.9962093949        0.9503905125       -1.0965978432
C                -2.7895203519        0.1788042221        0.2607335589
C                -4.0441296519       -0.7026278250        0.4559976143
C                -2.7329252456        1.0864408134        1.5241750052
C                -1.5034556009       -0.6852219103        0.1661961730
C                -1.5725573500       -2.0543083219        0.2115133560
C                -0.4255603416       -2.8774669322        0.1452411511
C                -0.5876692341       -4.2877513863        0.2005390600
C                 0.4909003382       -5.1359321448        0.1444738537
C                 1.7803851455       -4.5761997181        0.0298384401
C                 1.9638419317       -3.2107469971       -0.0253919940
C                 0.8736712441       -2.2834180862        0.0286529850
C                 0.9988930980       -0.8366759928       -0.0290560607
C                 2.4326377329       -0.2050458247       -0.1597930101
C                 3.2635995774       -0.6088067474        1.0980000256
C                 3.0642390433       -0.6918949590       -1.5009732263
C                 2.4982982171        1.3584992395       -0.2142073341
C                 3.9064946312        1.9731449614       -0.3352288701
C                 3.8395773845        3.5051664387       -0.3831275809
C                -0.1884869104       -0.0991132582        0.0361887190
O                -0.1008347506        1.2713167721       -0.0200338689
H                -3.0774941445        3.5330689013        0.2293558307
H                -4.2529660185        4.2491834221       -0.8749405735
H                -2.6665133242        3.7548975576       -1.4783585054
H                -4.8820917682        1.8644797600       -0.4687184026
H                -4.4593961832        2.1354096681       -2.1411545043
H                -2.0497720642        1.3461555377       -1.4866309799
H                -3.2827685576        0.1836275640       -1.8267502841
H                -4.1949173446       -1.3939167956       -0.3794313041
H                -3.9892089755       -1.2849126171        1.3816600979
H                -4.9345780007       -0.0696481644        0.5228967396
H                -3.6561418676        1.6663069718        1.6242482090
H                -2.6395653106        0.4538845001        2.4135049922
H                -1.8953182505        1.7888092843        1.5562057821
H                -2.5282874942       -2.5551219579        0.3071748326
H                -1.5976116933       -4.6823412186        0.2895812381
H                 0.3574800425       -6.2132006974        0.1874898284
H                 2.6496887917       -5.2273059408       -0.0162041199
H                 2.9799113047       -2.8595235810       -0.1131020451
H                 3.0954636478       -1.6300263069        1.4362026034
H                 4.3370216949       -0.4920796414        0.9148600972
H                 2.9964585513        0.0471786882        1.9349970127
H                 4.1517152679       -0.5626540554       -1.4938832283
H                 2.8571783009       -1.7336929283       -1.7405638841
H                 2.6642852228       -0.0936119208       -2.3282430611
H                 1.9053103840        1.7171154826       -1.0600695949
H                 2.0310431434        1.7727266693        0.6836246375
H                 4.4130854775        1.6152082457       -1.2396975970
H                 4.5371575986        1.6753177023        0.5111189190
H                 3.3724761552        3.9109078851        0.5228734457
H                 3.2482212384        3.8503393469       -1.2403600595
H                 4.8397088565        3.9460469556       -0.4687903198
H                -0.9886447031        1.6449791350       -0.0469443531



