%chk=calculation/no_transfer_pubchem_sampling_4_b3lyp/19257867_rwf.chk
%rwf=calculation/no_transfer_pubchem_sampling_4_b3lyp/19257867_rwf.rwf
%nprocshared=14
%mem=3GB
#p b3lyp/6-31g(d) 6D 10F nosymm GFInput td=(50-50,nstate=2) SCF=XQC 

Gaussian input prepared by ASE

0 1
C                -5.9799703439       -0.4887939480       -2.3521809917
C                -4.7231901381        0.1361315938       -1.7509475079
N                -5.0430553344        0.7433764794       -0.4492638376
S                -3.9177260220        1.7371873993        0.3072452012
O                -4.5395486059        2.1217791062        1.5763275416
O                -3.4913871932        2.7143926540       -0.6952498473
C                -2.4868889806        0.7289475921        0.7072302566
C                -2.3870238304        0.1414991632        1.9685117214
C                -1.2997653386       -0.6764240319        2.2690633244
C                -0.3027108769       -0.9034884314        1.3094822692
O                 0.7715759188       -1.7068569933        1.5073807740
C                 0.9650547727       -2.2961292885        2.7878131238
C                -0.3875192242       -0.2818773111        0.0438722989
C                 0.5957549422       -0.5559177878       -1.0658294527
O                 0.1862402786       -1.0310410090       -2.1240124863
N                 1.9262380326       -0.2779895231       -0.8833253650
C                 2.6091560953        0.4019822285        0.1538512144
C                 2.1234039296        1.3047325476        1.1012604286
C                 3.0323833062        1.8712944303        2.0011086243
C                 4.3935366662        1.5655841531        1.9466851515
C                 4.8723832999        0.6831888568        0.9709247286
C                 3.9798231749        0.1082806115        0.0759011135
C                 4.2273678163       -0.8516421709       -1.0652553921
C                 2.9135945840       -0.7754750722       -1.8839591127
C                 3.0052961745        0.1665403086       -3.0870086811
C                -1.4951362923        0.5101289761       -0.2521956259
H                -6.3688492711       -1.2950686711       -1.7179126053
H                -5.7509684426       -0.9200355441       -3.3323638165
H                -6.7663034964        0.2622511419       -2.4733382103
H                -4.3565874508        0.9416510527       -2.3920692645
H                -3.9247977052       -0.6172845308       -1.6676290395
H                -5.4546113405        0.1046810197        0.2283292695
H                -3.1501636577        0.3369791167        2.7146122438
H                -1.2353595533       -1.1324784305        3.2497754446
H                 0.1435412444       -2.9768481375        3.0431660335
H                 1.0656780682       -1.5302382158        3.5662043769
H                 1.8945279825       -2.8619053143        2.7133684031
H                 1.0771587712        1.5814622517        1.1373863250
H                 2.6664815977        2.5763599430        2.7426392675
H                 5.0830199776        2.0251588680        2.6490209538
H                 5.9338856276        0.4556840150        0.9084564716
H                 4.3985837873       -1.8700944249       -0.6904900685
H                 5.0961084554       -0.5783406665       -1.6734824145
H                 2.5740665374       -1.7577060268       -2.2180027751
H                 2.0326588082        0.2449965745       -3.5786579671
H                 3.7312309386       -0.2205895108       -3.8116742819
H                 3.3301019192        1.1664755020       -2.7767635722
H                -1.5672886094        0.9754774544       -1.2291722455



