%chk=./calculation/no_transfer_pubchem_sampling_4_b3lyp/19587883.chk
%nprocshared=7
%mem=6GB
#p b3lyp/6-31g(d) opt SCF=XQC 

Gaussian input prepared by ASE

0 1
C                -6.6485351343       -2.1548790836       -0.4349363731
C                -7.3299441853       -1.6233935657        0.5609585844
C                -7.0025931073       -0.3336780902        1.2607266600
N                -5.8956087782        0.3777494756        0.6792357022
C                -5.8871470313        1.0455359545       -0.5394457087
C                -6.9202584870        1.2200122994       -1.4431571701
C                -6.6507542118        1.9405994227       -2.5947581202
C                -5.3893285497        2.4733176883       -2.8451836441
C                -4.3513188616        2.3016778165       -1.9488687756
C                -4.6022952422        1.5835699295       -0.7883565781
C                -3.7991865618        1.2118172231        0.3388215185
N                -2.5444422418        1.4091717148        0.6645223937
N                -2.1296000102        0.9158750256        1.8077860676
C                -2.9549311963        0.2351731184        2.5976849171
S                -2.3457571759       -0.3988990147        4.1012898724
C                -0.7008484147        0.3909357996        4.2500224004
C                 0.4053272627       -0.3799304713        3.5319877199
O                 1.2155601467       -1.0426480555        4.1377689464
N                 0.3586315738       -0.1959005858        2.1898876606
C                 1.1732275293       -0.7386158539        1.2034196948
C                 2.2089778319       -1.6333487646        1.4774712806
C                 2.9795701950       -2.1244465946        0.4407638250
C                 2.7198040546       -1.7232002457       -0.8538997047
S                 3.7244525512       -2.3218058262       -2.1905733742
O                 4.6877924090       -3.2710943591       -1.7259946207
O                 2.9009525710       -2.6858627008       -3.3060199568
N                 4.5122382585       -0.9073665335       -2.7146830988
C                 5.4313980818       -0.3248228451       -1.8926779982
N                 5.2718302438       -0.5535985166       -0.5976731986
C                 6.1455367711        0.0060543584        0.2317123679
C                 5.9657811976       -0.2845050869        1.6848775543
C                 7.1728547283        0.8087052083       -0.2499409354
C                 7.2420217159        1.0061931148       -1.6258046031
C                 8.3007265652        1.8584121214       -2.2469788198
N                 6.3686983861        0.4371968019       -2.4475565480
C                 1.6925715558       -0.8468780626       -1.1451619386
C                 0.9161932794       -0.3530654473       -0.1160437400
N                -4.2429787310       -0.0359514752        2.3578531410
C                -4.6648326055        0.4595300511        1.2118171551
H                -5.7700584503       -1.6895332610       -0.8507805603
H                -6.9417472116       -3.0888789609       -0.8805939238
H                -8.2052738038       -2.1179136489        0.9590759415
H                -6.7303035549       -0.5467317311        2.3000974627
H                -7.8861795000        0.3163496173        1.2624059742
H                -7.8984322081        0.8025547753       -1.2640075974
H                -7.4393159191        2.0901745444       -3.3165906308
H                -5.2221787646        3.0270026100       -3.7561922027
H                -3.3696855246        2.7077679401       -2.1330984962
H                -0.4929954061        0.3889290142        5.3192901781
H                -0.7892605080        1.4090451126        3.8752890345
H                -0.4203359984        0.3850868104        1.8526679288
H                 2.3968000079       -1.9309959144        2.4961021305
H                 3.7928765084       -2.8092012057        0.6138704831
H                 4.6712307724       -0.8056472445       -3.7048362556
H                 6.3879648301       -1.2637162280        1.9068460851
H                 6.4672842573        0.4600825733        2.2972306111
H                 4.9063913831       -0.3191259344        1.9245854601
H                 7.8884069066        1.2658520435        0.4144109320
H                 9.2832843226        1.4338786593       -2.0479904025
H                 8.1431776296        1.9119418044       -3.3196793117
H                 8.2737503444        2.8605736147       -1.8231463290
H                 1.5130820055       -0.5698110991       -2.1714262845
H                 0.1077294991        0.3346851634       -0.3185607822



