%chk=./calculation/no_transfer_pubchem_sampling_4_b3lyp/21469508.chk
%nprocshared=7
%mem=6GB
#p b3lyp/6-31g(d) opt SCF=XQC 

Gaussian input prepared by ASE

0 1
C                -7.6324283903        2.7688201944        1.7414714312
O                -6.4599345418        3.1679147257        1.0757649129
C                -5.6457074311        2.2089870782        0.5496392108
C                -5.9074347856        0.8452113740        0.6009742409
C                -4.9918810341       -0.0390113611        0.0448930354
O                -5.1279548050       -1.4009816971        0.0368795166
C                -6.2447150338       -1.9742072560        0.6686489745
C                -3.8304819395        0.4337891103       -0.5701781858
N                -2.9259718203       -0.5097284067       -1.0951815129
C                -1.6121128048       -0.5797589971       -0.7620857761
O                -1.0124947866        0.2451008121       -0.1194502766
C                -0.9462901158       -1.8458331423       -1.3532992683
C                -1.8454139006       -3.0456356648       -1.2073445310
C                -2.2389397294       -3.4686123698        0.0582822172
C                -3.0926475071       -4.5468223873        0.1969104657
C                -3.5653258372       -5.2124262436       -0.9225616660
C                -3.1738069798       -4.7991990887       -2.1838583516
C                -2.3181703414       -3.7199940877       -2.3260639713
C                 0.3630088100       -2.0499794570       -0.6828885278
N                 0.5329313047       -2.4900590960        0.5734464883
N                 1.8034673500       -2.4982323532        0.7895307019
N                 2.3854221228       -2.0788159962       -0.3018772466
C                 3.8033693687       -1.8694510068       -0.4177456452
C                 4.1064944305       -0.4105533572       -0.2071106004
C                 4.2051193012        0.1555714370        0.9909646138
C                 4.0633602324       -0.6410260460        2.2579371409
C                 4.4504989694        1.6230139146        1.2063746556
C                 4.9021301290        2.4354246479       -0.0138384167
C                 6.2525273989        2.0071962641       -0.5083046597
C                 7.4250982261        2.3531191005        0.0098416487
C                 7.6009494992        3.2598730009        1.1919349996
C                 8.7141228056        1.8364954904       -0.5597297306
N                 1.5309405438       -1.7886426519       -1.2552247333
C                -3.5946370599        1.8115795534       -0.6618017553
O                -2.4984170385        2.1874876726       -1.3579654443
C                -2.1167013283        3.5407187067       -1.3313768302
C                -4.5011998584        2.6876926538       -0.0814482783
H                -8.1041091217        3.6889013302        2.0830951674
H                -8.3180688320        2.2410346074        1.0701606012
H                -7.4094990783        2.1357385764        2.6064861453
H                -6.7985075864        0.4732198777        1.0757012029
H                -6.1204257809       -3.0501030145        0.5543857136
H                -6.2760433250       -1.7248047328        1.7337736898
H                -7.1810988289       -1.6649645438        0.1926259937
H                -3.3618628061       -1.3571307075       -1.4357586730
H                -0.7441808961       -1.6388530669       -2.4099193083
H                -1.8598303648       -2.9517053048        0.9255241240
H                -3.3919154438       -4.8695507643        1.1833165654
H                -4.2343239813       -6.0536635409       -0.8127389776
H                -3.5349965893       -5.3167006989       -3.0607859552
H                -2.0158199659       -3.4004288802       -3.3138951810
H                 4.1063693101       -2.1858933590       -1.4175742232
H                 4.2792632692       -2.4961761183        0.3384695817
H                 4.1712404851        0.1745288187       -1.1087187840
H                 3.1588853473       -1.2464771727        2.2414945455
H                 4.9134898698       -1.3126948623        2.3796182605
H                 4.0242080155        0.0161458826        3.1224245547
H                 3.5206507596        2.0536967316        1.5938458509
H                 5.2058459840        1.7270187913        1.9898904437
H                 4.9274919070        3.4881547409        0.2782316537
H                 4.1649156151        2.3389908630       -0.8113194801
H                 6.2494399444        1.3331491966       -1.3539180551
H                 8.4085373339        3.9663942108        1.0048068535
H                 7.8729350450        2.6751336303        2.0714041971
H                 6.6968466429        3.8162269621        1.4191811068
H                 9.2927747865        1.3334113094        0.2145976858
H                 8.5351108924        1.1363539768       -1.3713508779
H                 9.3176104976        2.6613624516       -0.9388492884
H                -2.8508067893        4.1756892144       -1.8396038465
H                -1.1682288063        3.5861941677       -1.8637929359
H                -1.9734324017        3.8945158463       -0.3067023356
H                -4.3592335304        3.7542535110       -0.1082668615



