%chk=calculation/no_transfer_pubchem_sampling_4_b3lyp/21469508_rwf.chk
%rwf=calculation/no_transfer_pubchem_sampling_4_b3lyp/21469508_rwf.rwf
%nprocshared=14
%mem=3GB
#p b3lyp/6-31g(d) 6D 10F nosymm GFInput td=(50-50,nstate=2) SCF=XQC 

Gaussian input prepared by ASE

0 1
C                -7.7386056693        3.0412595080        1.6939272698
O                -6.6896374412        3.3502895792        0.7930484355
C                -5.8471358844        2.3457521538        0.4049082497
C                -5.9739169051        1.0180620519        0.8238284023
C                -5.0351530836        0.0815839125        0.3691908926
O                -5.0560903585       -1.2420837493        0.7102360098
C                -6.0537797568       -1.6971907127        1.6091227784
C                -3.9966509666        0.4478417986       -0.4973332233
N                -3.0736371770       -0.5326033324       -0.9349592922
C                -1.7282068161       -0.4693677760       -0.6798326883
O                -1.1698335030        0.4688060170       -0.1398946972
C                -0.8948171342       -1.6678831222       -1.2323341706
C                -1.6842256502       -2.9030176847       -1.6538332589
C                -2.2281725054       -3.7888553262       -0.7095238912
C                -2.9641242684       -4.8993339542       -1.1246208464
C                -3.1711182919       -5.1434843886       -2.4840015914
C                -2.6367461821       -4.2676951470       -3.4297961764
C                -1.9002360578       -3.1569575666       -3.0154486336
C                 0.2174998004       -1.9695527130       -0.2680506205
N                 0.0405651067       -2.4205770609        0.9997207118
N                 1.2385320249       -2.5712575093        1.5126148299
N                 2.0920105943       -2.2207299048        0.5559184326
C                 3.5441544410       -2.1747959566        0.7653622964
C                 4.0374712058       -0.7675302745        0.9743098539
C                 4.6083501419       -0.2693942957        2.0810276551
C                 4.8520786862       -1.0544653365        3.3485887142
C                 5.0504305709        1.1815373812        2.1915316583
C                 5.1236455356        2.0325922614        0.9072374104
C                 6.2472671453        1.6329274552       -0.0144963459
C                 7.2243441424        2.4029082435       -0.5191593051
C                 7.3868359484        3.8823071256       -0.2660244952
C                 8.2762378712        1.8116229808       -1.4289466378
N                 1.5063642919       -1.8344471076       -0.5748246667
C                -3.9200906530        1.7833487802       -0.9404292227
O                -2.9417071945        2.0515629812       -1.8411797503
C                -2.6974542885        3.4041778665       -2.1903008805
C                -4.8291862202        2.7337274134       -0.4725070674
H                -8.2678004984        3.9796835706        1.8706911212
H                -8.4369388457        2.3083146139        1.2674494319
H                -7.3531165152        2.6582565272        2.6483352049
H                -6.7672428884        0.7184192734        1.4929494092
H                -5.8649953432       -2.7632066168        1.7479351663
H                -5.9833784416       -1.1876464468        2.5787107759
H                -7.0625836447       -1.5581411771        1.1981941348
H                -3.4540676480       -1.4398184762       -1.1709239939
H                -0.4080917409       -1.2590716433       -2.1256186518
H                -2.0569437036       -3.6097703327        0.3474890344
H                -3.3736014764       -5.5785685004       -0.3813340073
H                -3.7430140709       -6.0107089649       -2.8033801005
H                -2.7889524747       -4.4486608631       -4.4906201361
H                -1.4854516705       -2.4784991797       -3.7575099382
H                 3.9937154736       -2.6180554551       -0.1292280216
H                 3.7388593392       -2.8311998196        1.6124924380
H                 3.8875672937       -0.1231802676        0.1123226333
H                 4.3933220688       -2.0453166648        3.3516816803
H                 5.9294216779       -1.1775951864        3.5246017165
H                 4.4557461956       -0.5064147589        4.2132413821
H                 4.3657951323        1.6724209115        2.9010548691
H                 6.0350845149        1.2040855069        2.6813914001
H                 5.2263938813        3.0793317849        1.2098164750
H                 4.1607012911        1.9730483899        0.3791260707
H                 6.2572233795        0.5779977918       -0.2892134927
H                 7.3269385060        4.4441960418       -1.2087431582
H                 8.3780386711        4.0961848045        0.1578100534
H                 6.6364167510        4.2939826563        0.4126544600
H                 9.2844946576        1.9533714613       -1.0141535327
H                 8.1229401159        0.7396705465       -1.5887677532
H                 8.2740282588        2.3051338577       -2.4113089009
H                -3.5533492272        3.8484926531       -2.7160218430
H                -1.8342768161        3.3864435070       -2.8579307704
H                -2.4611616563        4.0077588419       -1.3053343748
H                -4.7869770457        3.7699700221       -0.7809369208



