%chk=calculation/no_transfer_pubchem_sampling_4_b3lyp/22751383_rwf.chk
%rwf=calculation/no_transfer_pubchem_sampling_4_b3lyp/22751383_rwf.rwf
%nprocshared=14
%mem=3GB
#p b3lyp/6-31g(d) 6D 10F nosymm GFInput td=(50-50,nstate=2) SCF=XQC 

Gaussian input prepared by ASE

0 1
O                 8.1333328401       -0.0483471673       -0.8330990420
C                 7.6410536727        0.4181772235        0.1753699267
O                 8.4035221756        0.7939605842        1.2369641958
C                 6.1893818258        0.6390577658        0.3934751269
C                 5.6831303130        1.1840464737        1.5809066017
C                 4.3111311699        1.3713320583        1.7294115684
C                 3.4182016362        1.0250377578        0.7056795293
C                 1.9261980083        1.1887066639        0.8810929304
C                 1.2480772540       -0.1352743699        1.3019687401
N                -0.1993154552       -0.0252075714        1.4198483725
C                -1.0096325437       -0.0704098430        0.3151261453
O                -0.5688201448       -0.2423660710       -0.8117594472
C                -2.5135002398        0.0519130937        0.6236376354
C                -3.1893751068       -1.3152805719        0.6996796576
C                -2.8875229289       -2.4001426810        1.5130144097
C                -3.6659513767       -3.5591483010        1.4108959664
C                -4.7291372464       -3.6222734899        0.5045051938
C                -5.0322967079       -2.5332126262       -0.3162099849
C                -4.2562928930       -1.3771557776       -0.2185524174
C                -4.3335922804       -0.0987299871       -0.9374996467
C                -5.2109870577        0.3409152490       -1.9302522369
C                -5.0522816689        1.6281506163       -2.4476991511
C                -4.0323256424        2.4644151569       -1.9811804572
C                -3.1538758710        2.0258451844       -0.9843686315
C                -3.3104515729        0.7465374360       -0.4665453677
C                 3.9373689242        0.4802500062       -0.4797684373
C                 5.3053358628        0.2885749313       -0.6365591604
H                 9.3233008927        0.6028298145        0.9762550752
H                 6.3637088814        1.4609150924        2.3785130752
H                 3.9264188349        1.8002153701        2.6520652669
H                 1.4667225123        1.5104491692       -0.0594317408
H                 1.7146410065        1.9580154197        1.6340397482
H                 1.4597266422       -0.9038686426        0.5542375087
H                 1.6465915508       -0.4798997930        2.2619330294
H                -0.5961742471        0.2437023843        2.3087150413
H                -2.6396385624        0.5832405776        1.5794819306
H                -2.0557767793       -2.3584017603        2.2120378677
H                -3.4402574327       -4.4164481236        2.0391555355
H                -5.3245474319       -4.5288042636        0.4362355505
H                -5.8582134546       -2.5907603382       -1.0204401331
H                -6.0035796358       -0.3048423330       -2.2993402551
H                -5.7266067231        1.9832056262       -3.2224597899
H                -3.9194867714        3.4615110340       -2.3979220011
H                -2.3576058401        2.6767906270       -0.6319611685
H                 3.2578720499        0.2109673287       -1.2849621777
H                 5.7115285614       -0.1281899331       -1.5523933828



