%chk=calculation/no_transfer_pubchem_sampling_4_b3lyp/23253513_rwf.chk
%rwf=calculation/no_transfer_pubchem_sampling_4_b3lyp/23253513_rwf.rwf
%nprocshared=14
%mem=3GB
#p b3lyp/6-31g(d) 6D 10F nosymm GFInput td=(50-50,nstate=2) SCF=XQC 

Gaussian input prepared by ASE

0 1
C                -2.5523097332       -1.3043046828       -2.1155777068
C                -1.3600833932       -1.9514911821       -1.4006449672
C                -0.8347703300       -1.3676193018       -0.0580540895
C                 0.2651020062       -2.3706624769        0.4163761653
O                 0.1193576860       -3.5778910408        0.4848408852
C                 1.5037236510       -1.6337063574        0.7188002599
C                 2.6905505699       -2.1711180176        1.2109785433
C                 3.7423088892       -1.2882533347        1.4549027228
O                 4.8892380029       -1.8412152290        1.9406047134
C                 5.9845791423       -0.9947792814        2.2506620546
C                 3.5907260809        0.0901677659        1.2018700139
C                 2.3850048066        0.5977673560        0.7002067388
O                 2.1699735464        1.9158265918        0.4346552059
C                 3.2022697767        2.8507397678        0.7125939076
C                 1.3212600362       -0.2822444613        0.4466085684
C                -0.0721909955        0.0529315768       -0.0988146158
C                 0.0897126243        0.6762360270       -1.5001773023
C                -0.5750200124        1.8383567817       -1.9120209786
C                -0.3745893625        2.3770193326       -3.1857143240
C                 0.4992080374        1.7669976409       -4.0829267092
C                 1.1789591830        0.6142112665       -3.6869495492
C                 0.9813315361        0.0848211644       -2.4130365780
C                -0.7841153261        1.0086168936        0.9392709355
C                -0.6431923187        0.3191672107        2.2982349017
O                -0.0927540782        0.7628814727        3.2743527590
O                -1.2271440892       -0.9108183305        2.3090551526
C                -1.9448531429       -1.2825152552        1.0657868054
C                -2.6303690640       -2.6003408888        1.3970460460
C                -2.9120736002       -0.1392697921        0.7908469119
C                -4.3019779480       -0.2177141764        0.7083852703
C                -5.0509506007        0.9520573109        0.5538308012
C                -4.4158816754        2.1947965408        0.5046981588
C                -3.0248242246        2.2756848889        0.6022425539
C                -2.2768561559        1.1051196116        0.7248092331
H                -2.6759373069       -1.7849181882       -3.0933023449
H                -2.4081057450       -0.2350331378       -2.2887722115
H                -3.4896285387       -1.4309703426       -1.5686950099
H                -0.5152364022       -1.9685442558       -2.0964775336
H                -1.5860714239       -3.0044503420       -1.1999276021
H                 2.7927115994       -3.2316313708        1.4106511329
H                 6.7678824445       -1.6511084645        2.6337022625
H                 5.7210212636       -0.2586499205        3.0214611743
H                 6.3571681980       -0.4710789259        1.3600011244
H                 4.4108942349        0.7647540353        1.4043344256
H                 4.1003536390        2.6451597709        0.1158682331
H                 3.4620622171        2.8540833319        1.7786746760
H                 2.8014338092        3.8265082282        0.4339894222
H                -1.2661514265        2.3374967376       -1.2466464618
H                -0.9079226436        3.2803749539       -3.4706744653
H                 0.6539239987        2.1854501806       -5.0737855861
H                 1.8733234570        0.1270832710       -4.3666936386
H                 1.5448155895       -0.7956684368       -2.1192653162
H                -0.2842221167        1.9752852763        0.9790283449
H                -3.2256586665       -2.9524041224        0.5497650344
H                -1.8977505516       -3.3692924490        1.6401123387
H                -3.2936011915       -2.4544328934        2.2546050943
H                -4.8079183274       -1.1761497765        0.7703392851
H                -6.1337555630        0.8927069475        0.4875282916
H                -5.0043943261        3.1025594900        0.4037163332
H                -2.5285867461        3.2434150113        0.5927225086



