%chk=calculation/no_transfer_pubchem_sampling_4_b3lyp/23485712_rwf.chk
%rwf=calculation/no_transfer_pubchem_sampling_4_b3lyp/23485712_rwf.rwf
%nprocshared=14
%mem=3GB
#p b3lyp/6-31g(d) 6D 10F nosymm GFInput td=(50-50,nstate=2) SCF=XQC 

Gaussian input prepared by ASE

0 1
C                 7.4756658000        0.0015673966       -1.0018150268
C                 6.3174263567       -0.3196354555       -0.0857022669
C                 6.5377106176       -0.8869774008        1.1783700110
C                 5.4617933871       -1.1774369702        2.0125029319
C                 4.1458278335       -0.9179454964        1.6253247298
C                 3.9128401947       -0.3514388110        0.3650196730
N                 2.6472660897       -0.0283300590       -0.1759436217
C                 1.3957897017       -0.1550263200        0.3125264627
N                 1.2412998596       -0.6822415250        1.5433151247
C                 0.0028899996       -0.7965968246        2.0009111116
N                -1.1348844459       -0.4617284413        1.4107600471
C                -1.0583253141        0.0729978337        0.1754911951
N                -2.2028078647        0.4233185517       -0.4498337466
C                -3.5645686128        0.3490927479       -0.0670173752
C                -4.0159968391       -0.1896459972        1.1457984049
C                -5.3806543050       -0.2323949868        1.4518429582
C                -5.8400544827       -0.7905923419        2.7794672006
C                -6.2956099626        0.2670059900        0.5220751608
C                -5.8479402373        0.8022868729       -0.6847964137
C                -4.4925912543        0.8588472972       -1.0103215545
C                -4.0528795755        1.4442918048       -2.3325449716
C                 0.2364154175        0.2609739599       -0.4538852753
N                 0.3636741705        0.8225522395       -1.7507392809
O                -0.6555131434        1.1769056802       -2.3855813779
O                 1.4929403271        0.9684851685       -2.2698851955
C                 5.0048122107       -0.0597801824       -0.4743472117
H                 8.0581692752       -0.8976772278       -1.2369904444
H                 8.1641567660        0.7176567481       -0.5364784177
H                 7.1332747654        0.4340238387       -1.9469756340
H                 7.5530969546       -1.0992787035        1.5045850788
H                 5.6419985725       -1.6169283243        2.9901311923
H                 3.3159599491       -1.1453722860        2.2762279339
H                 2.6596560024        0.3785262482       -1.1099316374
H                -0.0924753148       -1.2246270908        2.9983032469
H                -2.0226721695        0.8180485458       -1.3706148191
H                -3.2906923747       -0.5740592639        1.8473874361
H                -6.8849954107       -1.1149918321        2.7364235192
H                -5.7635017492       -0.0377732753        3.5753714528
H                -5.2308807402       -1.6476145550        3.0864969387
H                -7.3608659260        0.2378671960        0.7378562069
H                -6.5705348856        1.1859875575       -1.4010437224
H                -4.9201871782        1.7835914536       -2.9053251642
H                -3.3861562927        2.3077196915       -2.2066381351
H                -3.5157051649        0.7161167036       -2.9549728095
H                 4.8178299932        0.3802278446       -1.4522059148



