%chk=calculation/no_transfer_pubchem_sampling_4_b3lyp/24040144_rwf.chk
%rwf=calculation/no_transfer_pubchem_sampling_4_b3lyp/24040144_rwf.rwf
%nprocshared=14
%mem=3GB
#p b3lyp/6-31g(d) 6D 10F nosymm GFInput td=(50-50,nstate=2) SCF=XQC 

Gaussian input prepared by ASE

0 1
O                 8.0053044243        2.3428025488        1.5402473112
C                 8.6011556592        1.4462565436        0.9488175593
N                 8.2734226574        0.1261775579        1.1203514841
C                 7.2398335965       -0.2793049851        2.0627926297
C                 5.8437258122       -0.2304441719        1.4409083511
O                 4.9294516989       -0.6880802634        2.4201414995
C                 3.5800469342       -0.6367805980        1.9993860128
C                 2.7197135967       -1.1048623739        3.1730962739
O                 1.3359073035       -1.0879973648        2.8547809210
C                 0.8527126429       -2.2708529362        2.2298488002
C                -0.6102135091       -2.0388474419        1.8835705501
N                -0.7412221954       -0.9103833962        0.9853710404
C                -1.6720716263       -0.7839469814        0.0051521591
N                -2.4630101825       -1.8439534253       -0.2585827163
C                -3.3324780528       -1.6326202251       -1.2598001263
N                -4.1549729228       -2.6548535552       -1.6277754687
C                -4.2592178120       -3.9360923985       -0.9489234721
C                -5.4371992914       -4.0390744107        0.0073406092
C                -6.4741728007       -4.9479755478       -0.2282204886
C                -7.5557384710       -5.0389048386        0.6524605707
C                -7.6180935566       -4.2220393376        1.7798517652
C                -6.5775131702       -3.3234501710        1.9987186710
F                -6.6246058927       -2.5315637297        3.0924219724
C                -5.4932602810       -3.2153321435        1.1403939575
N                -3.4799563074       -0.4931631335       -1.9611229019
C                -2.6286412897        0.4820667845       -1.5966113510
N                -2.6762242941        1.6644528658       -2.2686739150
C                -3.6707613356        2.0233496493       -3.2705711432
C                -4.8003257997        2.8901364191       -2.7404782908
C                -4.9255621378        4.2192848917       -3.1492321925
C                -5.9534568492        5.0555526098       -2.6709803927
C                -6.8346090980        4.4988427985       -1.7684373773
C                -6.7182668801        3.1716555602       -1.3538014988
C                -5.7211145180        2.3419036328       -1.8175497809
O                -7.7413688550        2.8714447881       -0.4835763175
C                -8.4015397977        4.1129502712       -0.2212733059
O                -7.9304293296        5.0764686467       -1.1705082210
N                -1.7041292261        0.4040676039       -0.6221564570
C                 9.7341186757        1.7359489156        0.0030742895
C                10.1388236251        0.8588344608       -1.0132123150
C                11.1960449514        1.1978806074       -1.8579398718
C                11.8590098900        2.4153626299       -1.6941479479
C                11.4520096860        3.2997136939       -0.6917584685
C                10.3910489927        2.9652616636        0.1462198116
H                 8.8921861328       -0.5798318843        0.7518351493
H                 7.4532010345       -1.2975337088        2.4017187434
H                 7.2663449463        0.3870278310        2.9296193679
H                 5.6137363057        0.8015147490        1.1372616322
H                 5.8034263554       -0.8668207407        0.5404863143
H                 3.4227513225       -1.2800214351        1.1172813088
H                 3.2915163962        0.3879173565        1.7160746168
H                 3.0403639140       -2.1070351379        3.4932527166
H                 2.8598529213       -0.4222868041        4.0171191539
H                 0.9448947767       -3.1289595449        2.9151103340
H                 1.4204914368       -2.4981233538        1.3154646335
H                -1.1764470502       -1.8756066510        2.8130497439
H                -1.0248132307       -2.9198980609        1.3899731241
H                -0.2354974317       -0.0674474293        1.2205442117
H                -4.8634823754       -2.3980590080       -2.3012363025
H                -3.3193365387       -4.0780846613       -0.4108999640
H                -4.3337957798       -4.7266299360       -1.7052082026
H                -6.4361053005       -5.5902119825       -1.1048763489
H                -8.3556618562       -5.7481607130        0.4583911674
H                -8.4447223112       -4.2684735532        2.4810974098
H                -4.7012064949       -2.5046444733        1.3539081423
H                -2.1052360124        2.3946376081       -1.8652143481
H                -3.1631058700        2.5463160217       -4.0898640257
H                -4.0596110119        1.0827954588       -3.6667880602
H                -4.2094280641        4.6252638443       -3.8594068648
H                -6.0499444732        6.0864176952       -2.9943015399
H                -5.6417388142        1.3088227963       -1.4958987807
H                -8.1574493809        4.4515613709        0.7959238055
H                -9.4811347260        3.9836205180       -0.3406132105
H                 9.6090625104       -0.0759571729       -1.1784748660
H                11.4953235543        0.5152952396       -2.6486651677
H                12.6839231846        2.6778378175       -2.3510903126
H                11.9603374932        4.2519237025       -0.5666971039
H                10.0491307733        3.6429445272        0.9215113037



