%chk=calculation/no_transfer_pubchem_sampling_4_b3lyp/24055153_rwf.chk
%rwf=calculation/no_transfer_pubchem_sampling_4_b3lyp/24055153_rwf.rwf
%nprocshared=14
%mem=3GB
#p b3lyp/6-31g(d) 6D 10F nosymm GFInput td=(50-50,nstate=2) SCF=XQC 

Gaussian input prepared by ASE

0 1
C                 7.1771950055       -1.2542601185       -3.3236560213
O                 5.9766142683       -0.4994023862       -3.3455878671
C                 5.0624602343       -0.7217325439       -2.3535853771
C                 5.2132060431       -1.6396189858       -1.3151514320
C                 4.2039828010       -1.7771476305       -0.3540013816
C                 3.0448658769       -1.0076376910       -0.4189399240
N                 1.9810880332       -1.0732638758        0.5034465161
C                 1.8605247289       -1.8712156133        1.5986827324
O                 2.6818658316       -2.6965538537        1.9845091197
C                 0.5537251203       -1.7097602320        2.3931794228
C                -0.2388694516       -3.0131820021        2.4192456591
O                -0.2220646063       -0.6354562047        1.7897029031
C                -1.1359358246       -0.0020507082        2.5507770243
O                -1.3502789942       -0.2522751251        3.7164065855
C                -1.8358038895        1.0783959394        1.7637308201
C                -2.5449552203        0.7823967617        0.6321348665
C                -2.6594074949       -0.6200245800        0.1226723367
C                -1.9110670348       -1.0496046043       -0.9842969647
C                -2.0402651081       -2.3521776588       -1.4657075526
C                -2.9231774667       -3.2442692528       -0.8508688129
C                -3.6741100810       -2.8264147683        0.2484079425
C                -3.5448352682       -1.5217876843        0.7300481316
C                -3.2563315420        1.8555293914       -0.0391186683
C                -4.0314061930        1.6481645970       -1.2023144805
C                -4.6913587665        2.7055873622       -1.8086502507
C                -4.6069293202        4.0028074439       -1.2761719920
C                -3.8592719366        4.2261913019       -0.1310151434
C                -3.1841525449        3.1644868478        0.4930893255
C                -2.4102205621        3.4600201139        1.7086477543
O                -2.3169844543        4.5852121779        2.1938103479
N                -1.7569407462        2.3610550984        2.2937909754
C                -0.9341566132        2.6390371141        3.4810537205
C                 2.9019012331       -0.0801193566       -1.4804257711
O                 1.7293664050        0.6336779814       -1.4724034039
C                 1.5560033602        1.6575054615       -2.4430120571
C                 3.8987507528        0.0615699368       -2.4350522388
H                 7.7549515702       -0.9236496834       -4.1888770438
H                 6.9788855536       -2.3309051305       -3.4095624011
H                 7.7548037280       -1.0675348293       -2.4086254995
H                 6.1014532833       -2.2540204679       -1.2314904791
H                 4.3122839435       -2.4842892845        0.4568771159
H                 1.2133854158       -0.4404458835        0.3170251874
H                 0.8150330969       -1.4066190967        3.4109892538
H                -1.1028714100       -2.9176863444        3.0809869080
H                -0.5832299886       -3.2731383337        1.4135984854
H                 0.4128840412       -3.8087472914        2.7891937761
H                -1.2066787151       -0.3662025674       -1.4510064707
H                -1.4467027384       -2.6730913868       -2.3175521469
H                -3.0235709818       -4.2586668977       -1.2273364488
H                -4.3630275373       -3.5135108747        0.7323216526
H                -4.1346615674       -1.1959855635        1.5825695638
H                -4.1083168422        0.6494996250       -1.6179702139
H                -5.2823916050        2.5253643799       -2.7027916043
H                -5.1287296004        4.8249498174       -1.7575916490
H                -3.7749721833        5.2121908623        0.3130525596
H                -1.3708250807        2.1778236984        4.3684193730
H                 0.0784272665        2.2512152985        3.3362096839
H                -0.9031768687        3.7203928864        3.5942747279
H                 0.5923170770        2.1197503064       -2.2227522723
H                 1.5398458850        1.2447524092       -3.4595255604
H                 2.3498011532        2.4110331524       -2.3700830330
H                 3.8120535296        0.7638355463       -3.2547163092



