%chk=calculation/no_transfer_pubchem_sampling_4_b3lyp/34263779_rwf.chk
%rwf=calculation/no_transfer_pubchem_sampling_4_b3lyp/34263779_rwf.rwf
%nprocshared=14
%mem=3GB
#p b3lyp/6-31g(d) 6D 10F nosymm GFInput td=(50-50,nstate=2) SCF=XQC 

Gaussian input prepared by ASE

0 1
C                 5.6081929658       -2.9054584522        1.6185428726
N                 5.6409233233       -1.6780478095        0.8466612840
C                 5.4968304566       -1.6563133900       -0.5032735003
O                 5.3528345974       -2.6427931211       -1.2142703047
C                 5.5829624752       -0.2645427741       -1.1432582946
O                 5.6010235548        0.8232564342       -0.2205873668
C                 4.4175529423        1.3930275994        0.1882339194
C                 4.5536267013        2.5900631765        0.9019954245
C                 3.4111804804        3.2324350174        1.3678340531
C                 2.1453267619        2.7027573699        1.1283911493
C                 2.0194198871        1.5015528751        0.4145366106
N                 0.7119774473        1.0147296907        0.2156386743
C                 0.2986169294       -0.0672035840       -0.5241413945
O                 1.0628063255       -0.8435101217       -1.0940650154
C                -1.1693445668       -0.3122801311       -0.5622961453
S                -1.6233509373       -1.9220378262       -1.0594627168
C                -3.2971663269       -1.5266688373       -0.7301505237
C                -4.3945444499       -2.4844154110       -0.9217290940
C                -4.1617605483       -3.8150967313       -1.3065809192
C                -5.2257762764       -4.6969962267       -1.4784377619
C                -6.5369333406       -4.2650423070       -1.2671576506
C                -6.7774909417       -2.9431876857       -0.8829542033
C                -5.7178790557       -2.0575523205       -0.7115065172
N                -3.4834656194       -0.2958186776       -0.3111541411
C                -2.3080454286        0.4086720305       -0.2288452008
C                -2.4051516345        1.8310786178        0.1827775631
C                -1.7269021001        2.8502231995       -0.5073547036
C                -1.8615882711        4.1829888250       -0.1149718835
C                -2.6814127481        4.5171556572        0.9641371961
C                -3.3753953171        3.5126738488        1.6439102667
C                -3.2442070216        2.1817633646        1.2540971895
C                 3.1614342252        0.8318879705       -0.0558130302
H                 5.4414198432       -3.7263505283        0.9193045752
H                 4.7950393913       -2.8879984616        2.3535780454
H                 6.5566514175       -3.0693733252        2.1441419673
H                 5.7739197035       -0.7915644340        1.3127316400
H                 6.5340152993       -0.2075499010       -1.6817445140
H                 4.7757323617       -0.1666865999       -1.8749527212
H                 5.5462045908        2.9950591702        1.0687281284
H                 3.5054309868        4.1638352299        1.9192661541
H                 1.2572091036        3.2174921297        1.4861102876
H                -0.0169527338        1.5711236384        0.6435623516
H                -3.1466774038       -4.1677193020       -1.4702166218
H                -5.0299605844       -5.7231680475       -1.7763632521
H                -7.3659687469       -4.9543651150       -1.4016323138
H                -7.7955355210       -2.6007751570       -0.7184784827
H                -5.8917911113       -1.0283868231       -0.4172046032
H                -1.1111802543        2.5991699192       -1.3660666190
H                -1.3367581743        4.9596249258       -0.6643444329
H                -2.7875954519        5.5550706807        1.2675012092
H                -4.0225809648        3.7674274262        2.4787425765
H                -3.7921514918        1.3996847017        1.7697537963
H                 3.0372332516       -0.1018523974       -0.5830220071



