%chk=./calculation/no_transfer_pubchem_sampling_4_b3lyp/3950310.chk
%nprocshared=7
%mem=6GB
#p b3lyp/6-31g(d) opt SCF=XQC 

Gaussian input prepared by ASE

0 1
C                 2.4177952042        2.4975159953       -0.7924132983
C                 1.9758065458        1.1782436486       -0.2676529418
C                 0.7199612518        0.6739965815       -0.1451936271
C                 0.8259727306       -0.6508384028        0.3752017685
C                -0.1712649188       -1.6094548534        0.6927348916
C                -1.5254426992       -1.5871036533        0.5935304149
S                -2.4281321925       -3.0215077631        1.1091057082
C                -3.9918897488       -2.2795772193        0.7064228409
O                -5.0496523545       -2.8228741331        0.8471115371
N                -3.7649527578       -1.0229981952        0.2101636690
C                -4.8581560130       -0.2053023654       -0.1981152202
C                -4.8392799354        0.3846982583       -1.4535672797
C                -5.8976744451        1.1857827341       -1.8427241380
C                -6.9718442706        1.3855424145       -0.9923505869
C                -6.9865668908        0.7871218700        0.2562179194
C                -5.9282411553       -0.0056166581        0.6618699024
C                -2.4478498368       -0.5641159145        0.1165592002
O                -2.1853136353        0.5410311011       -0.3007618811
C                 2.1920426517       -0.9028359412        0.5379312302
C                 2.8680553859       -2.1092738853        1.0853804419
N                 2.8727140663        0.2068446672        0.1474739605
C                 4.2702246007        0.3465557540        0.1250620740
C                 5.0659206861       -0.5336793300       -0.6046724145
C                 6.4374976804       -0.3493039519       -0.5996441562
C                 6.9592397813        0.7089412430        0.1308415053
N                 6.2089512628        1.5465273008        0.8253061730
C                 4.9027895682        1.3727354428        0.8265461145
H                 2.6480023501        3.1922769641        0.0156410711
H                 1.6168911570        2.9280971305       -1.3871256486
H                 3.3061637918        2.3954444233       -1.4147544760
H                -0.1928185451        1.1716131048       -0.3927931647
H                 0.2250577147       -2.5397179156        1.0842729970
H                -4.0010302203        0.2234295851       -2.1129155755
H                -5.8837833214        1.6495156826       -2.8176181524
H                -7.7983839437        2.0070340199       -1.3030034235
H                -7.8227171794        0.9400847522        0.9217273251
H                -5.9340714246       -0.4741393978        1.6335881874
H                 3.8868903283       -1.8776354294        1.3890725883
H                 2.3278465877       -2.4822180299        1.9534466819
H                 2.9026201697       -2.9100392617        0.3449681692
H                 4.6099969444       -1.3342266176       -1.1685293188
H                 7.0851532818       -1.0096304322       -1.1545733453
H                 8.0234258450        0.8974378219        0.1649755767
H                 4.3300489021        2.0716168554        1.4205627002



