%chk=./calculation/no_transfer_pubchem_sampling_4_b3lyp/4075354.chk
%nprocshared=7
%mem=6GB
#p b3lyp/6-31g(d) opt SCF=XQC 

Gaussian input prepared by ASE

0 1
C                -5.2236020156       -0.8328739892       -1.6593215256
C                -5.9025515163       -1.0242926961       -0.3318475885
C                -7.1660159886       -1.5915431123       -0.2775901958
C                -7.8204877523       -1.7847304961        0.9266642024
C                -7.2049480558       -1.4050790240        2.1052834932
C                -5.9449479009       -0.8369984677        2.0804371614
C                -5.2873757759       -0.6424990249        0.8702486532
N                -4.0063668670       -0.0784148259        0.8067604805
C                -3.2532438075        0.4449983796        1.8130043590
O                -3.5914441245        0.5390741690        2.9763729372
C                -1.9313403084        0.9566170939        1.3868632298
S                -1.2744343151        2.1513043802        2.4780580695
C                 0.1429912562        2.2631697010        1.5162804881
N                 1.1712084175        3.0830671877        1.8051221576
C                 2.1623780321        3.0650995974        0.9850377979
N                 2.2472030123        2.2909017388       -0.1228352722
C                 3.4058082549        2.3592182786       -1.0124197558
C                 3.9693944997        3.7645545183       -1.1545815058
C                 4.4845164620        1.3836140119       -0.4687838294
O                 5.4441452414        1.7822731617        0.1508536125
N                 4.1805396335        0.1003046557       -0.7536433088
C                 4.8776622388       -1.0640956178       -0.4057516955
C                 6.1107975111       -1.0478917658        0.2369842199
C                 6.7399237858       -2.2428828037        0.5373964098
C                 6.1562612070       -3.4532867730        0.2051467339
C                 4.9276146922       -3.4686567037       -0.4348861600
C                 4.2898216625       -2.2823182309       -0.7402856308
C                 1.2621945534        1.3413582348       -0.4402084103
O                 1.4467547223        0.5682554633       -1.3734255766
C                 0.1150520181        1.3937621569        0.4227759659
C                -1.0866350406        0.6311858863        0.3562327680
C                -1.3265501890       -0.3943116613       -0.7036322164
H                -5.8826633027       -1.1535812863       -2.4619025655
H                -4.9764962282        0.2159929899       -1.8303786264
H                -4.3093952721       -1.4248051029       -1.7232543669
H                -7.6466708259       -1.8876496917       -1.1991586868
H                -8.8044458919       -2.2283916356        0.9404163707
H                -7.7034300958       -1.5495350515        3.0516277502
H                -5.4636442714       -0.5368711491        2.9955014003
H                -3.6269166216       -0.0048273159       -0.1236713241
H                 2.9988709868        3.7119357741        1.1977387516
H                 3.0536782934        1.9918557899       -1.9836010279
H                 4.5755181596        3.8095944577       -2.0557465355
H                 4.6141517950        4.0045479556       -0.3122279872
H                 3.1712767102        4.4990243574       -1.2318123412
H                 3.2951087605       -0.0617781787       -1.2318362431
H                 6.5665983303       -0.1076353967        0.4976706912
H                 7.6972854711       -2.2242441205        1.0362796811
H                 6.6545640440       -4.3808483085        0.4430323091
H                 4.4640959580       -4.4079869236       -0.6976203392
H                 3.3308285716       -2.2897055386       -1.2393071288
H                -1.9178396320        0.0234688153       -1.5205046219
H                -0.3717232902       -0.6989834505       -1.1239277508
H                -1.8330751922       -1.2684604126       -0.2989494773



