%chk=calculation/no_transfer_pubchem_sampling_4_b3lyp/4075354_rwf.chk
%rwf=calculation/no_transfer_pubchem_sampling_4_b3lyp/4075354_rwf.rwf
%nprocshared=14
%mem=3GB
#p b3lyp/6-31g(d) 6D 10F nosymm GFInput td=(50-50,nstate=2) SCF=XQC 

Gaussian input prepared by ASE

0 1
C                -5.1387640650       -1.3474011396       -1.5570840570
C                -5.9193485715       -1.2536966548       -0.2659203994
C                -7.2101356039       -1.7830181830       -0.1918779219
C                -7.9635531962       -1.7209194949        0.9798961460
C                -7.4146161951       -1.1144900088        2.1075194157
C                -6.1301970284       -0.5743599018        2.0713877186
C                -5.3777206487       -0.6402695102        0.8887903922
N                -4.0653825851       -0.1169972791        0.7926682882
C                -3.3558909877        0.5961520333        1.7308334818
O                -3.7877394649        0.8952557284        2.8427084780
C                -1.9871127330        1.0419012322        1.3441850406
S                -1.3058797341        2.1829738687        2.4985944485
C                 0.1443461870        2.2921823401        1.5594082787
N                 1.1822344995        3.0855657172        1.9330105310
C                 2.2006022803        3.0712903298        1.1240882494
N                 2.2879577762        2.3372998761       -0.0295274845
C                 3.4934507462        2.4208718008       -0.9021087073
C                 4.0848958268        3.8244873326       -0.9845880275
C                 4.5533924940        1.3931638177       -0.4179113923
O                 5.5318694140        1.7511112928        0.2247640887
N                 4.2520675718        0.1118992744       -0.7806103957
C                 4.9469678624       -1.0804944135       -0.4763483644
C                 6.1702622540       -1.1081333724        0.2098511340
C                 6.7856942884       -2.3357492171        0.4568502218
C                 6.2077908254       -3.5331814012        0.0338855935
C                 4.9901839499       -3.4989322097       -0.6488777516
C                 4.3623000141       -2.2832160892       -0.9035627915
C                 1.2690938873        1.4297326147       -0.4259815760
O                 1.4467641266        0.7070634778       -1.4160143513
C                 0.1031541348        1.4697150790        0.4276635602
C                -1.1298026095        0.7375543075        0.3043241651
C                -1.3992160831       -0.2313113729       -0.8215345373
H                -5.7365579493       -1.8356667618       -2.3315026724
H                -4.8552427658       -0.3593819954       -1.9476788508
H                -4.2162998274       -1.9347537220       -1.4465687688
H                -7.6289080392       -2.2540581329       -1.0781257031
H                -8.9647849561       -2.1411831723        1.0079300573
H                -7.9846533238       -1.0553825691        3.0306919751
H                -5.7033631864       -0.0985409159        2.9418628173
H                -3.6266188192       -0.2248392781       -0.1079816459
H                 3.0644082269        3.6818490047        1.3607245311
H                 3.1294481873        2.1159752428       -1.8847967266
H                 4.8031859985        3.8506275213       -1.8093480638
H                 4.6337924489        4.0912221913       -0.0790911310
H                 3.3048781867        4.5656421709       -1.1839681171
H                 3.3565214040       -0.0002341847       -1.2537827274
H                 6.6184616719       -0.1817650860        0.5406916111
H                 7.7328108889       -2.3492185827        0.9897528978
H                 6.6986378457       -4.4814073421        0.2333072355
H                 4.5241432181       -4.4209922902       -0.9857049101
H                 3.4130311043       -2.2597582894       -1.4344579026
H                -2.1217830690        0.1767930599       -1.5424803644
H                -0.4797225570       -0.4266352728       -1.3728467181
H                -1.7890533212       -1.1843414704       -0.4464302977



