%chk=./calculation/no_transfer_pubchem_sampling_4_b3lyp/41403978.chk
%nprocshared=7
%mem=6GB
#p b3lyp/6-31g(d) opt SCF=XQC 

Gaussian input prepared by ASE

0 1
O                -0.1697564857       -3.0042255698       -1.1286890748
C                -1.1604921688       -2.4678000909       -1.5885799829
C                -1.3679198891       -2.3271236282       -3.0870605579
S                -0.1919311505       -1.0398939150       -3.7016099784
C                -0.0663417941       -0.0814048141       -2.2451298336
N                -1.0039471776        0.6581386789       -1.7428462008
N                -0.5827313107        1.1118447110       -0.5464163402
C                 0.6255239865        0.6391669655       -0.3402591448
N                 1.3730806186        0.8901718960        0.7613541365
C                 2.1818885029       -0.1508375066        1.3660838491
C                 3.4577838256        0.4823215315        1.9346402185
C                 3.1732783474        1.9262998191        2.3639356681
C                 1.7426950557        2.0372654374        2.8828671567
C                 0.7605463656        1.7766545701        1.7366864470
N                 1.0326144688       -0.1171784418       -1.4089864202
C                 2.3345518335       -0.5644666332       -1.7203425631
C                 3.3728805316        0.3613913460       -1.7114365360
C                 4.6518911738       -0.0465915481       -2.0389141867
C                 4.8941765293       -1.3664630058       -2.3838867237
C                 3.8555889595       -2.2817596059       -2.3926435509
C                 2.5709315312       -1.8893455596       -2.0600682826
N                -2.1305002694       -1.8644978888       -0.8739972334
C                -2.1037917925       -1.5490205982        0.4867891744
C                -1.3947950873       -2.3457265564        1.3815492123
C                -1.3098642131       -2.0193900123        2.7205773314
C                -1.9612455621       -0.8934480810        3.1902783618
C                -2.6740686666       -0.0974745403        2.3138770731
C                -2.7568691583       -0.3919465293        0.9533624594
N                -3.4235692518        0.5359981462        0.1296556497
C                -3.3406985076        1.9543486372        0.4600218624
C                -3.6366370265        2.6398036677       -0.8694251589
C                -4.6167077926        1.6708628410       -1.5143971718
C                -4.1573080069        0.3304947280       -0.9843035697
O                -4.4387449539       -0.7497703358       -1.4835377538
H                -1.0864908266       -3.2391643800       -3.6104727971
H                -2.3795645404       -2.0220759254       -3.3469614310
H                 1.6018680786       -0.6329533063        2.1659480130
H                 2.4229661407       -0.9161132428        0.6296645307
H                 4.2477045655        0.4706740162        1.1825473179
H                 3.7972406187       -0.1078498893        2.7865132932
H                 3.2874742478        2.5943497916        1.5089045798
H                 3.8834368247        2.2370838422        3.1306732291
H                 1.5598591012        3.0288518031        3.2970918162
H                 1.5941083266        1.3099957155        3.6825843684
H                 0.5151727082        2.7041789607        1.2134967933
H                -0.1769361363        1.3450466656        2.1155209154
H                 3.1681743339        1.3887067486       -1.4480597471
H                 5.4598287286        0.6700636229       -2.0316495060
H                 5.8940316657       -1.6798754305       -2.6443637875
H                 4.0434366303       -3.3112799312       -2.6568755650
H                 1.7615599072       -2.6016059893       -2.0350149635
H                -2.9678485981       -1.5277217028       -1.3613018015
H                -0.8884102592       -3.2174523303        1.0018996071
H                -0.7427831476       -2.6463721370        3.3918331978
H                -1.9161059188       -0.6286891503        4.2362094357
H                -3.1789907905        0.7750218033        2.6970886464
H                -4.0961529939        2.2165118749        1.2113551743
H                -2.3422193784        2.1823332495        0.8306051615
H                -4.0354318751        3.6440255645       -0.7431594018
H                -2.7205706332        2.6788977821       -1.4569443259
H                -4.6006037620        1.6749095713       -2.6020569371
H                -5.6442644822        1.8441042887       -1.1841531520



