%chk=./calculation/no_transfer_pubchem_sampling_4_b3lyp/42679264.chk
%nprocshared=7
%mem=6GB
#p b3lyp/6-31g(d) opt SCF=XQC 

Gaussian input prepared by ASE

0 1
C                -2.8351036764       -3.8771075312       -1.9158889497
C                -1.9906627287       -2.6979335834       -2.3979683644
C                -1.3569001831       -2.0054078357       -1.2316136979
N                -0.3393481083       -2.6246264996       -0.6534542872
C                 0.2954571090       -2.1061163040        0.3984339656
N                 1.3431588015       -2.8519617594        0.8269687312
C                 1.7317028830       -4.0300615452        0.0626405637
C                 3.2439075966       -4.2158050561       -0.0521524937
C                 3.9434761924       -3.0316598001       -0.7238106271
N                 3.4733540640       -1.7419643088       -0.2489061129
C                 2.9719962987       -0.8832637162       -1.1747218446
O                 2.9577369020       -1.1561185940       -2.3618506350
C                 2.4268153716        0.4419292682       -0.7341328730
C                 1.1846475118        0.8005982975       -1.2498155457
C                 0.6234958414        2.0296570582       -0.9580884223
C                 1.3162483356        2.9129144177       -0.1435932789
C                 0.7307864728        4.2452910703        0.2261486126
F                 0.4246249241        4.3227286803        1.5340895122
F                -0.3855588477        4.5460997543       -0.4467430124
F                 1.5939224733        5.2562042149       -0.0031648666
C                 2.5814167904        2.5913377815        0.3321091966
C                 3.1411454293        1.3650920826        0.0237182909
C                 3.4185108138       -1.5725021147        1.1813511689
C                 2.2704103034       -2.4107442676        1.8232629582
C                -0.1801213969       -0.8781272717        0.9494450002
C                 0.0280797271        0.0896477931        1.9871509254
C                 0.9166229693        0.2004414884        3.1828813829
N                -0.8121194006        1.0858794022        1.8492346975
N                -1.5935075491        0.8654697377        0.7828747601
C                -2.5413419314        1.8232707595        0.4025540543
C                -3.3319834544        1.6550587945       -0.7272236405
C                -4.2356376924        2.6413465149       -1.0778073110
C                -4.3697559089        3.7996251435       -0.3245790363
C                -5.3345355076        4.8766532733       -0.7164687572
C                -3.5729782611        3.9493727257        0.8060008158
C                -2.6673897320        2.9764578141        1.1726782298
C                -1.2651411772       -0.3157082598        0.2086508548
N                -1.8533066698       -0.8427258457       -0.8634231228
H                -2.2144930161       -4.5742050576       -1.3581925774
H                -3.2755385220       -4.3968415719       -2.7633466671
H                -3.6349612339       -3.5274605694       -1.2670080072
H                -2.6141344944       -1.9810920009       -2.9318721072
H                -1.2036939428       -3.0613973397       -3.0603591939
H                 1.2978594238       -4.9175073822        0.5405172858
H                 1.2885593021       -3.9274899152       -0.9295151243
H                 3.6868199483       -4.4094481138        0.9259643142
H                 3.4218799978       -5.1033330040       -0.6612089015
H                 5.0250645257       -3.1019187650       -0.5575397040
H                 3.7541116860       -3.0439602524       -1.7992712087
H                 0.6675957448        0.1073864700       -1.8957018380
H                -0.3399988186        2.3018106912       -1.3608828384
H                 3.1268998225        3.3059768281        0.9296500646
H                 4.1475711620        1.1465494511        0.3503519011
H                 4.3823906049       -1.8736033464        1.6040455452
H                 3.2554216592       -0.5211376623        1.4052684188
H                 2.6700964447       -3.2871994518        2.3374075421
H                 1.7422361427       -1.8156487443        2.5580890778
H                 1.9707016503        0.2669979928        2.9184078316
H                 0.6389291929        1.1260093170        3.6829333965
H                 0.7631347283       -0.6204366727        3.8832139948
H                -3.2314210804        0.7588395751       -1.3167133937
H                -4.8458045454        2.5047998383       -1.9591999664
H                -4.7918909692        5.7539951990       -1.0681116759
H                -5.9378095721        5.1798771833        0.1376529912
H                -5.9952079171        4.5392698322       -1.5110238009
H                -3.6616966541        4.8441403835        1.4045095571
H                -2.0447458557        3.0937813090        2.0448172420



