%chk=calculation/no_transfer_pubchem_sampling_4_b3lyp/42679264_rwf.chk
%rwf=calculation/no_transfer_pubchem_sampling_4_b3lyp/42679264_rwf.rwf
%nprocshared=14
%mem=3GB
#p b3lyp/6-31g(d) 6D 10F nosymm GFInput td=(50-50,nstate=2) SCF=XQC 

Gaussian input prepared by ASE

0 1
C                -3.0705137922       -4.0547019138       -2.1213941289
C                -2.5117490791       -2.7028005178       -2.5981703299
C                -1.8853057796       -1.9166052344       -1.4712030929
N                -0.6734302047       -2.3295026567       -1.0627150383
C                -0.0437315497       -1.7182945672       -0.0455719156
N                 1.1421336814       -2.3109533894        0.3227361960
C                 1.5789535512       -3.4860759574       -0.4785201698
C                 2.8389394664       -4.1728866691        0.0563182596
C                 4.1205102269       -3.3104789983        0.0267461974
N                 3.8920988777       -1.8877324068        0.2922931028
C                 3.8806647426       -1.0402342445       -0.8029491228
O                 3.9984083418       -1.4480691875       -1.9549251231
C                 3.8045054493        0.4462028126       -0.5601021349
C                 2.9512365073        1.2063542405       -1.3700124645
C                 2.9130195965        2.5925116198       -1.2475409755
C                 3.7544958288        3.2345267229       -0.3341087800
C                 3.6813673308        4.7285850333       -0.1619850589
F                 2.7929267226        5.0736336879        0.7995849913
F                 3.2939871902        5.3488379266       -1.2968669550
F                 4.8739828540        5.2506134879        0.2020884368
C                 4.6324205542        2.4875065489        0.4552678555
C                 4.6522894751        1.0987035151        0.3457190979
C                 3.2159524585       -1.5650765964        1.5427538810
C                 1.7587591533       -2.1262015701        1.6238322147
C                -0.6439407187       -0.5439906899        0.5291846022
C                -0.3928239548        0.5444248056        1.4464130419
C                 0.8031151143        0.9710067031        2.2487647918
N                -1.4371555668        1.3506768380        1.5016543262
N                -2.3941971675        0.8652613911        0.6567022871
C                -3.6180061713        1.5816663128        0.5155003975
C                -4.7224848933        1.0247516125       -0.1396922543
C                -5.9022418789        1.7611865266       -0.2406035315
C                -6.0228466883        3.0456951080        0.3002777172
C                -7.2987451778        3.8420139375        0.1588280205
C                -4.9061958953        3.5768197219        0.9595653026
C                -3.7156408718        2.8654244414        1.0684302228
C                -1.9419312086       -0.2613274807        0.0214670970
N                -2.5950651368       -0.9206333637       -0.9477595777
H                -2.2773800172       -4.6646345266       -1.6768560986
H                -3.5036859805       -4.6113668540       -2.9597309151
H                -3.8536287084       -3.9102923035       -1.3686381717
H                -3.3115420727       -2.0993600587       -3.0376129641
H                -1.7491841897       -2.8763161902       -3.3660654927
H                 0.7616618092       -4.2137828201       -0.5148618572
H                 1.7435456616       -3.1503299060       -1.5061520558
H                 2.6627664785       -4.5699483952        1.0621505201
H                 3.0071232205       -5.0531197209       -0.5758307766
H                 4.8379240155       -3.6863762801        0.7675232631
H                 4.5838910011       -3.3644954001       -0.9577737078
H                 2.3268278500        0.7011019136       -2.0994502648
H                 2.2433949004        3.1772180784       -1.8692440578
H                 5.3034060887        2.9910848004        1.1433247357
H                 5.3447942391        0.5199845676        0.9502277468
H                 3.8006399659       -1.9644891061        2.3813671283
H                 3.1934077555       -0.4835992918        1.6515589532
H                 1.7585066747       -3.0802343533        2.1631804496
H                 1.1413438995       -1.4546838579        2.2141416000
H                 1.7061232198        1.0179647010        1.6324717746
H                 0.6059995689        1.9739599765        2.6349738063
H                 1.0061612595        0.3232225663        3.1098311879
H                -4.6500213698        0.0369326187       -0.5734988742
H                -6.7521979166        1.3151366130       -0.7524195958
H                -7.2510802531        4.5261748459       -0.6993173075
H                -7.4914743064        4.4533783570        1.0475392706
H                -8.1638274059        3.1882861291        0.0050853343
H                -4.9651295994        4.5708501282        1.3976733353
H                -2.8621271771        3.2868922194        1.5840646473



