%chk=./calculation/no_transfer_pubchem_sampling_4_b3lyp/42869497.chk
%nprocshared=7
%mem=6GB
#p b3lyp/6-31g(d) opt SCF=XQC 

Gaussian input prepared by ASE

0 1
C                 8.7042789459        1.4760095969       -1.7161719863
O                 7.5724195407        0.6651182630       -1.5188893420
C                 7.3387558511        0.1563083384       -0.2738250169
C                 8.1222087401        0.4209828972        0.8423641287
C                 7.7987214857       -0.1367408942        2.0688167591
C                 6.6982676240       -0.9616963433        2.1935980726
C                 5.9193866516       -1.2300164353        1.0792901517
C                 6.2229476094       -0.6875400107       -0.1566054370
C                 5.3572288023       -0.9520432569       -1.3549306853
C                 4.3978354965        0.2206000072       -1.5972434141
N                 3.5113065237        0.4027387748       -0.4642362714
S                 1.9286996938        0.8710576259       -0.7005435106
O                 1.6523662191        0.9052867953       -2.1041597869
O                 1.6915321294        2.0448516595        0.0916822606
C                 1.0193137312       -0.5077603905        0.0565799242
C                 1.5853878140       -1.8493572140       -0.3984158120
O                 0.4954384585       -2.5813201905       -0.9522700452
N                -0.7172235884       -2.0160054387       -0.4990946576
C                -1.0688677876       -2.5705582148        0.7980233027
C                -0.4229899682       -0.5788847980       -0.4807150500
C                -1.4844921097        0.2316380809        0.2079584270
C                -1.2097218984        1.2312402923        1.1175404937
C                -2.2486741036        1.9475685584        1.7030769292
C                -3.5670312866        1.6747140745        1.3920022625
O                -4.6515627066        2.3129778025        1.9134580267
C                -4.4317662966        3.3543462531        2.8315447276
C                -3.8541033974        0.6606783060        0.4479049636
O                -5.1724670702        0.4638003183        0.1910993424
C                -5.5380358271       -0.4905119405       -0.7778473905
C                -7.0381135704       -0.5137001660       -0.9309944942
C                -7.8447033712        0.4128381531       -0.2875894995
C                -9.2187825053        0.3723753250       -0.4535053339
C                -9.7963365864       -0.5894867882       -1.2632783107
C                -8.9937737011       -1.5161494443       -1.9084529150
C                -7.6217451892       -1.4793928999       -1.7425564303
C                -2.8131721719       -0.0373588377       -0.1320987264
H                 8.6967797180        1.7374352956       -2.7733320082
H                 9.6299754418        0.9400517182       -1.4834586437
H                 8.6536440940        2.3921828596       -1.1188543246
H                 8.9863086433        1.0623867616        0.7705621670
H                 8.4170935218        0.0802811965        2.9269327404
H                 6.4476865924       -1.3960963562        3.1492243868
H                 5.0583078820       -1.8765223614        1.1653572780
H                 4.7838855955       -1.8663422637       -1.1994908647
H                 5.9816835174       -1.0651142707       -2.2416074264
H                 3.7565329924        0.0247707407       -2.4576983524
H                 4.9779720375        1.1267945462       -1.8002806660
H                 3.9275943452        0.8927705046        0.3106729352
H                 1.0786750819       -0.3492569372        1.1299713568
H                 2.3186480484       -1.7168231651       -1.1959544507
H                 2.0432956097       -2.4091040032        0.4264175916
H                -0.3539681706       -2.3254212051        1.5920145091
H                -2.0488504570       -2.1935751844        1.0774222657
H                -1.1197494162       -3.6515426062        0.6824664508
H                -0.3708635508       -0.2726733828       -1.5368176159
H                -0.1950235552        1.5037998557        1.3549921398
H                -2.0025265103        2.7285935507        2.4037984091
H                -3.9213542345        2.9973486068        3.7323452046
H                -5.4209337563        3.7213885152        3.1012777468
H                -3.8525890318        4.1695052930        2.3856046651
H                -5.0789840784       -0.2431042942       -1.7482178519
H                -5.1860952115       -1.4915434762       -0.4833193437
H                -7.3870239016        1.1581828888        0.3430462920
H                -9.8404181934        1.0968631256        0.0520378039
H               -10.8682729994       -0.6193326027       -1.3924899382
H                -9.4385433043       -2.2699554756       -2.5415475030
H                -6.9959677190       -2.2032941126       -2.2455319813
H                -2.9994522119       -0.8092596204       -0.8607286283



