%chk=./calculation/no_transfer_pubchem_sampling_4_b3lyp/43483315.chk
%nprocshared=7
%mem=6GB
#p b3lyp/6-31g(d) opt SCF=XQC 

Gaussian input prepared by ASE

0 1
C                -0.5423849295       -2.9305057627        2.5746654632
N                 0.3768564288       -2.5086608161        1.5388882052
C                 0.5953499460       -1.0667482567        1.4979106161
C                 1.7507053273       -0.7297896641        0.5778622752
C                 2.6533598836       -1.7044442709        0.1690718542
C                 3.7036774048       -1.3639305373       -0.6604217781
C                 3.8807624824       -0.0598968715       -1.0934458478
C                 2.9887407434        0.9220180549       -0.6795382822
O                 3.0583764611        2.2397285668       -1.0288690937
C                 4.1093441513        2.6565391022       -1.8642714287
C                 1.9283065162        0.5763293049        0.1561256804
C                -0.6583860979       -0.3154064885        1.0948685358
C                -1.3908293271        0.4238957687        2.0152081141
C                -2.5530306419        1.0669430049        1.6356206675
C                -3.0157268538        0.9691384512        0.3307190716
C                -2.3082082410        0.1924500532       -0.5914914632
C                -1.1328696716       -0.4327314511       -0.2031449920
O                -2.7413979718        0.0185454512       -1.8833068071
C                -4.0792845379        0.4149216261       -2.0805221235
C                -4.3359391780        1.7621543742       -1.4070502553
O                -4.1588534456        1.6495704726       -0.0136993704
H                -0.6412105891       -4.0140554657        2.5300151743
H                -0.1212696567       -2.6611365228        3.5440151618
H                -1.5431897315       -2.4814308155        2.4954172530
H                 0.0342046890       -2.8139148250        0.6320195911
H                 0.8766232905       -0.7662993538        2.5168735068
H                 2.5257538021       -2.7182937360        0.5114349622
H                 4.4030244047       -2.1229832598       -0.9798709355
H                 4.7100559150        0.1738338927       -1.7423489770
H                 5.0863873133        2.4765996644       -1.4035145254
H                 4.0710393775        2.1596010875       -2.8394343876
H                 3.9696423736        3.7277743003       -2.0020710816
H                 1.2468801176        1.3544721995        0.4637297348
H                -1.0428656610        0.5109828656        3.0337541722
H                -3.1210576409        1.6586888729        2.3356653468
H                -0.5917397025       -1.0055592262       -0.9411349554
H                -4.2299185556        0.4746122654       -3.1594794385
H                -4.7596677881       -0.3357439715       -1.6539720971
H                -5.3627883166        2.0956068576       -1.5641856638
H                -3.6384700903        2.5071270581       -1.8150418824



