%chk=calculation/no_transfer_pubchem_sampling_4_b3lyp/43483315_rwf.chk
%rwf=calculation/no_transfer_pubchem_sampling_4_b3lyp/43483315_rwf.rwf
%nprocshared=14
%mem=3GB
#p b3lyp/6-31g(d) 6D 10F nosymm GFInput td=(50-50,nstate=2) SCF=XQC 

Gaussian input prepared by ASE

0 1
C                -0.5708172997       -2.9991999212        2.4588244461
N                 0.3958566121       -2.5417520505        1.4652720275
C                 0.5790118510       -1.0824808852        1.4165979622
C                 1.7897207207       -0.7297053554        0.5419556146
C                 2.7910940702       -1.6810726459        0.2892354979
C                 3.9095374915       -1.3301782350       -0.4617097403
C                 4.0681281177       -0.0375857914       -0.9689866662
C                 3.0761422439        0.9138873853       -0.7092065286
O                 3.1121112335        2.2116810580       -1.1432754832
C                 4.2299601962        2.6299087924       -1.9062942280
C                 1.9450227153        0.5630081421        0.0394856537
C                -0.6902139157       -0.3164921660        1.0345570962
C                -1.3602614218        0.4811207672        1.9698249128
C                -2.5402113315        1.1458752317        1.6342417176
C                -3.0793476023        1.0126739189        0.3571277012
C                -2.4294089261        0.1945870308       -0.5855337048
C                -1.2442978107       -0.4514029130       -0.2445927639
O                -2.9254132295        0.0207622669       -1.8566956793
C                -4.2846914088        0.4281534112       -2.0071249769
C                -4.5052525053        1.7773819178       -1.3422278324
O                -4.2415409781        1.6841531461        0.0571743704
H                -0.6445483945       -4.0903937827        2.4042154065
H                -0.2057280097       -2.7403750144        3.4600955923
H                -1.5831768837       -2.5755194979        2.3506583918
H                 0.1182538278       -2.8702210932        0.5411879328
H                 0.8289623726       -0.7874414453        2.4470205573
H                 2.6805925701       -2.6816064507        0.6905425064
H                 4.6795506064       -2.0723142783       -0.6583250646
H                 4.9484197698        0.2104569882       -1.5510433889
H                 5.1667040482        2.5351584826       -1.3402715053
H                 4.3189059559        2.0613073723       -2.8420690720
H                 4.0570331556        3.6822210250       -2.1407799528
H                 1.1932546647        1.3259416593        0.2122865368
H                -0.9513643185        0.5948520056        2.9708098151
H                -3.0572761646        1.7784310212        2.3495292595
H                -0.7582569751       -1.0547574023       -1.0069737169
H                -4.4742533062        0.4775274835       -3.0827510589
H                -4.9514509633       -0.3222224893       -1.5593980870
H                -5.5438140702        2.1048951238       -1.4392322528
H                -3.8469347080        2.5307391874       -1.7971012960



