%chk=./calculation/no_transfer_pubchem_sampling_4_b3lyp/43743606.chk
%nprocshared=7
%mem=6GB
#p b3lyp/6-31g(d) opt SCF=XQC 

Gaussian input prepared by ASE

0 1
C                 6.4394581865        0.4330359113       -0.6878430371
O                 5.7545865016       -0.0680060170        0.4283516129
C                 4.3713692805       -0.1452089707        0.3530309133
C                 3.5919991523        0.2290557395       -0.7230790238
C                 2.2111092274        0.1055712286       -0.6746221187
C                 1.5808928852       -0.4020901410        0.4578031498
N                 0.2199906353       -0.6151987790        0.5305260830
C                -0.7116466287        0.0132520017       -0.3797473489
C                -2.1147362871       -0.4537314786       -0.1152725320
C                -2.3797371033       -1.7491308010        0.2518393612
C                -3.6901184535       -2.1884658774        0.4886929698
C                -4.7451844030       -1.3304082724        0.3529208536
C                -4.5218502622        0.0079405568       -0.0249788188
C                -5.5647200106        0.9443172169       -0.1872563791
C                -5.2652015234        2.2267999413       -0.5554410080
C                -3.9147528171        2.5667609986       -0.7526278407
N                -2.9257264816        1.7313512877       -0.6140058061
C                -3.1924803742        0.4574061752       -0.2597583763
C                 2.3745569904       -0.7735154440        1.5485449160
C                 3.7473353857       -0.6529625382        1.5041629227
O                 4.4943906183       -1.0221663818        2.5808783961
H                 7.4961694900        0.4074324063       -0.4243405575
H                 6.2722909880       -0.1887846290       -1.5737007488
H                 6.1465778790        1.4649504109       -0.9086080710
H                 4.0440105069        0.6274276273       -1.6177929816
H                 1.6363811882        0.4141451732       -1.5319966356
H                -0.1299933533       -0.7033252761        1.4739750880
H                -0.4419165319       -0.2756851741       -1.4024247735
H                -0.6874532785        1.1106048673       -0.3233457293
H                -1.5603123813       -2.4449919837        0.3545371771
H                -3.8568614231       -3.2161091180        0.7761614792
H                -5.7590415878       -1.6606533816        0.5288754551
H                -6.5858497053        0.6308931737       -0.0172213552
H                -6.0349081418        2.9709373992       -0.6905001273
H                -3.6419008431        3.5758832555       -1.0362144785
H                 1.9223558341       -1.1655861001        2.4463460631
H                 5.4209168412       -0.8617430073        2.3559983071



