%chk=calculation/no_transfer_pubchem_sampling_4_b3lyp/44030558_rwf.chk
%rwf=calculation/no_transfer_pubchem_sampling_4_b3lyp/44030558_rwf.rwf
%nprocshared=14
%mem=3GB
#p b3lyp/6-31g(d) 6D 10F nosymm GFInput td=(50-50,nstate=2) SCF=XQC 

Gaussian input prepared by ASE

0 1
C                -6.4581168904        0.0736850884       -2.4758658442
O                -7.4411109443        0.7048100128       -1.6483048972
C                -7.0949508278        1.4300532874       -0.5575461919
C                -8.1247360320        2.1904111943        0.0102367455
C                -7.9118426217        2.9883623188        1.1358578955
C                -6.6590977150        3.0722063492        1.7434382395
C                -5.6306289249        2.3194030530        1.1823584848
S                -3.9550039321        2.2190572229        1.6968972847
C                -3.6774038021        1.0178795279        0.3933925565
N                -2.3772913080        0.5134062886        0.2213635552
C                -1.7978784191       -0.3087531955        1.3004848177
C                -2.0483527119       -1.8163621821        1.1309610320
C                -3.5070886381       -2.3021313813        1.1456438716
C                -3.4383070241       -3.5415524872        0.2413279877
C                -2.4310590724       -3.0857992793       -0.8172779898
O                -1.5027425293       -2.2300446925       -0.1290189428
C                -1.8001079419        0.5445943099       -1.0679609252
O                -2.4521960988        0.7042697922       -2.0823606319
C                -0.2953390763        0.5002074009       -1.1450364156
C                 0.5079042120        1.3044563176       -0.3235302856
C                 1.8882089740        1.3413833761       -0.5049503935
C                 2.4615548695        0.5553429981       -1.5057981082
S                 4.2371039350        0.6372290750       -1.7922727458
O                 4.6273960855        2.0373384071       -1.9594941669
O                 4.5504554233       -0.3438620815       -2.8420051161
N                 4.8232809720        0.1185864558       -0.2563654689
C                 4.6266092342       -1.3273585681       -0.0105911830
C                 5.8207348547       -2.1532454907       -0.4896444625
C                 7.0788255033       -1.7137556107        0.2656738409
C                 7.1667629432       -0.2105275373        0.4605449861
C                 8.3495677761        0.3468299381        0.9661426948
C                 8.4724087424        1.7111245245        1.2055715550
C                 7.3844929012        2.5516518227        0.9560284014
C                 6.1936353855        2.0228360016        0.4730625063
C                 6.0812656026        0.6493615715        0.2041997139
C                 1.6760434641       -0.2360443075       -2.3455146983
C                 0.2948697867       -0.2508060760       -2.1666944895
N                -4.7037588035        0.7507434026       -0.3354590281
C                -5.8181814610        1.4785058235        0.0520464577
H                -6.0197148264       -0.7963190036       -1.9804176487
H                -7.0051794739       -0.2390803015       -3.3680800600
H                -5.6527612314        0.7612903868       -2.7462718263
H                -9.1003814441        2.1443315457       -0.4624144411
H                -8.7404193425        3.5639733807        1.5389016975
H                -6.4942908306        3.7020798846        2.6110675204
H                -0.7206138889       -0.1426638503        1.3328080188
H                -2.2125564451        0.0310077499        2.2541490953
H                -1.4828603502       -2.3156454559        1.9357572636
H                -3.8597767267       -2.5174365343        2.1589684576
H                -4.1704399887       -1.5556535735        0.7004680666
H                -3.0487857153       -4.4050339162        0.7936709700
H                -4.4066278420       -3.8185936977       -0.1861502040
H                -2.9233531715       -2.5161004584       -1.6180344331
H                -1.8653258603       -3.9072794426       -1.2691723978
H                 0.0498121861        1.9217185369        0.4440375647
H                 2.5115069061        1.9697527691        0.1223530754
H                 3.6984795757       -1.6387643235       -0.4960578017
H                 4.4804205201       -1.4421073693        1.0709489368
H                 5.9368533022       -2.0008897683       -1.5670045884
H                 5.6298708696       -3.2204583170       -0.3254684938
H                 7.9784057669       -2.0708026266       -0.2505161851
H                 7.0921181866       -2.1913900673        1.2568284900
H                 9.1892900810       -0.3151678180        1.1685280428
H                 9.4048881996        2.1160572079        1.5889620709
H                 7.4581194162        3.6183503070        1.1483682000
H                 5.3453222247        2.6682360158        0.2842942461
H                 2.1494808335       -0.8225601861       -3.1252354311
H                -0.3374078223       -0.8443427451       -2.8178358463



