%chk=calculation/no_transfer_pubchem_sampling_4_b3lyp/46004625_rwf.chk
%rwf=calculation/no_transfer_pubchem_sampling_4_b3lyp/46004625_rwf.rwf
%nprocshared=14
%mem=3GB
#p b3lyp/6-31g(d) 6D 10F nosymm GFInput td=(50-50,nstate=2) SCF=XQC 

Gaussian input prepared by ASE

0 1
C                -4.1209831848        5.8945901546        0.1204464031
C                -3.3277484718        4.6127848740        0.0408164377
C                -3.9775740853        3.3757631967        0.0832936219
C                -3.2825675974        2.1696129350        0.0129429464
C                -1.8952305060        2.2063630025       -0.1117925341
N                -1.1055965187        0.9945334523       -0.1552053670
N                 0.0764456005        1.0729001277        0.4676864112
C                 0.9067217357        0.0768042870        0.4550212944
C                 2.2167057210        0.3459372791        1.1853389269
O                 2.4794036663        1.4661055965        1.6040128698
N                 3.0228573434       -0.7362774918        1.3485657225
C                 4.3455432571       -0.5852385835        1.9534360117
C                 5.4208019533       -0.2146894054        0.9829410045
C                 5.9528529979        0.9756394002        0.5834941548
C                 6.9264582053        0.6710927709       -0.4241679270
C                 6.9122346170       -0.6824045291       -0.5654123755
O                 6.0014248273       -1.2416441768        0.2821670167
C                 0.5913284009       -1.1906983175       -0.2274166610
O                 1.3278641307       -2.1755849651       -0.2628246893
N                -0.6441369300       -1.2021641139       -0.8705519947
C                -1.0310689017       -2.4287497704       -1.6195303248
C                -1.6428485850       -3.5068684608       -0.7394297392
C                -2.8499251069       -3.2288569253       -0.0822808730
C                -3.4646811459       -4.1784288197        0.7304965099
C                -2.8749122617       -5.4326316060        0.8845728994
C                -1.6850526973       -5.7211731853        0.2193243655
C                -1.0476559040       -4.7779295510       -0.5995169214
C                 0.2349891614       -5.1578190229       -1.3066174965
C                -1.5341151436       -0.1253343271       -0.8943482243
O                -2.5917301930       -0.1569487955       -1.4964301885
C                -1.2223097481        3.4298499820       -0.1533578038
C                -1.9207502104        4.6355912960       -0.0753552532
C                -1.1659447347        5.9431517730       -0.1193244280
H                -3.9751522431        6.5176326842       -0.7715403390
H                -5.1918937818        5.6909794708        0.2130031512
H                -3.8203492197        6.5044453412        0.9822009644
H                -5.0601861324        3.3499585726        0.1790812361
H                -3.8141621047        1.2285048281        0.0452571721
H                 2.7796093998       -1.5887195075        0.8519051030
H                 4.2665299427        0.1960917359        2.7115817141
H                 4.5985360692       -1.5284117166        2.4480898433
H                 5.6686401902        1.9492552804        0.9572275311
H                 7.5519175829        1.3679522597       -0.9648194501
H                 7.4629055962       -1.3749110998       -1.1838706227
H                -1.7451721199       -2.0950702376       -2.3729682167
H                -0.1277445795       -2.7807175723       -2.1137072549
H                -3.3155711467       -2.2575492483       -0.2236619926
H                -4.3990934326       -3.9418509819        1.2320950921
H                -3.3410047965       -6.1863530055        1.5138019149
H                -1.2312850862       -6.7026335384        0.3353881279
H                 0.1141269276       -5.1630632592       -2.3978654159
H                 0.5514834544       -6.1630802693       -1.0124626277
H                 1.0435756543       -4.4605326847       -1.0667177372
H                -0.1400029245        3.4343238625       -0.2238463314
H                -1.4811278370        6.5641814573       -0.9678104598
H                -0.0890863544        5.7746617279       -0.2088110057
H                -1.3362897500        6.5376268205        0.7874578087



