%chk=./calculation/no_transfer_pubchem_sampling_4_b3lyp/46004625.chk
%nprocshared=7
%mem=6GB
#p b3lyp/6-31g(d) opt SCF=XQC 

Gaussian input prepared by ASE

0 1
C                -4.3361437477        5.7833354187        0.1568909581
C                -3.4986671406        4.5483697911        0.0440590583
C                -4.0961406592        3.3082439442       -0.1300564146
C                -3.3510287738        2.1479912816       -0.2387152114
C                -1.9687590450        2.2350139633       -0.1841881273
N                -1.1323225898        1.0855474806       -0.2691775939
N                 0.0050133911        1.1819516564        0.3826006014
C                 0.8746657109        0.2325653966        0.3916968217
C                 2.1456838682        0.5409742516        1.1382602442
O                 2.3982748053        1.6657197963        1.5164813470
N                 2.9326175613       -0.5300089362        1.3562885024
C                 4.2406497731       -0.3939580741        1.9665092481
C                 5.3290258412       -0.4929962160        0.9480824258
C                 5.7900511970        0.4072033663        0.0325614696
C                 6.8009880511       -0.2587945990       -0.7021262847
C                 6.8750776619       -1.5125194381       -0.1809435866
O                 5.9868043434       -1.6658743207        0.8146663865
C                 0.6340544288       -1.0304399379       -0.3059019522
O                 1.3833311533       -1.9935518273       -0.3224964108
N                -0.5646230740       -1.0569830336       -0.9941299712
C                -0.8958436420       -2.2826830522       -1.7246627407
C                -1.4386047709       -3.3314367208       -0.7837372908
C                -2.6061440354       -3.0378582983       -0.0881780513
C                -3.1502466921       -3.9400435577        0.8058667248
C                -2.5239566878       -5.1570985721        1.0083513515
C                -1.3678384305       -5.4572702551        0.3127402492
C                -0.8048726992       -4.5599022324       -0.5880059341
C                 0.4524497826       -4.9296360900       -1.3139385623
C                -1.4741740496       -0.0141309208       -1.0514901289
O                -2.4663225595       -0.0558091134       -1.7371566092
C                -1.3533322230        3.4674175744        0.0004621040
C                -2.1025580394        4.6252926104        0.1178009373
C                -1.4173421405        5.9407627987        0.3174110431
H                -4.0776339716        6.4937685847       -0.6274614676
H                -5.3925375414        5.5430066769        0.0727120407
H                -4.1663450757        6.2742076517        1.1145835683
H                -5.1731990876        3.2421704004       -0.1765679679
H                -3.8446038878        1.2002615312       -0.3684268632
H                 2.7040520844       -1.4044921729        0.8940516456
H                 4.2616859645        0.5882828786        2.4458482527
H                 4.3703890078       -1.1817375128        2.7133261398
H                 5.4508215269        1.4147884300       -0.0925896687
H                 7.3878009281        0.1430950539       -1.5022921786
H                 7.4951992722       -2.3537279012       -0.4190884246
H                -1.6504169948       -2.0105112943       -2.4662694782
H                 0.0130268042       -2.6222999133       -2.2194153942
H                -3.0990325272       -2.0921711993       -0.2611359279
H                -4.0576115628       -3.6952759442        1.3373861064
H                -2.9367787609       -5.8725330434        1.7041266816
H                -0.8848698000       -6.4108502660        0.4720887320
H                 0.2880603153       -4.9524474582       -2.3908693433
H                 0.7952128170       -5.9121840831       -1.0002411971
H                 1.2357228902       -4.2050110258       -1.0977826603
H                -0.2768709968        3.5051543255        0.0642315947
H                -1.6482180110        6.6216064263       -0.5012516265
H                -0.3405459277        5.8079378027        0.3677689646
H                -1.7530710345        6.4095669183        1.2414458686



