%chk=calculation/no_transfer_pubchem_sampling_4_b3lyp/46026230_rwf.chk
%rwf=calculation/no_transfer_pubchem_sampling_4_b3lyp/46026230_rwf.rwf
%nprocshared=14
%mem=3GB
#p b3lyp/6-31g(d) 6D 10F nosymm GFInput td=(50-50,nstate=2) SCF=XQC 

Gaussian input prepared by ASE

0 1
C                 6.6475961927        3.4787995819        2.3660041997
O                 5.4014146310        4.0943322886        2.0832923227
C                 4.4663079686        3.3713106771        1.3994547189
C                 3.2438931067        4.0223985951        1.1680413619
C                 2.2252976607        3.3817283978        0.4778702131
C                 2.4202283450        2.0785958229        0.0151275865
O                 1.3322693882        1.5028049802       -0.6638775239
C                 1.5082128465        0.3040767629       -1.2976099350
C                 1.1353615694       -0.9702588190       -0.9061145507
C                 0.5509584117       -1.3412504698        0.4289726973
N                -0.8999040900       -1.6306254054        0.4186022911
C                -1.3360976342       -2.1073441353        1.7359861608
C                -2.7414049617       -2.7371540788        1.7696031179
C                -3.0656383226       -3.1790180470        3.2049368835
C                -2.8772017536       -3.9071379276        0.7866830260
C                -1.7533940288       -0.5969712347       -0.1729687240
C                -2.0837273244        0.6519901961        0.6787147858
O                -0.9305887783        1.2726695308        1.2308189102
C                -2.9268479905        1.6346295747       -0.1398973640
O                -3.4436451303        2.6240946868        0.7248967591
C                -4.0283555056        3.7579531249        0.0847920962
C                -4.1337917291        4.8409979373        1.1541704296
C                -5.3884758140        3.4277874338       -0.5396244542
C                 1.5297473243       -1.7784575857       -2.0198085521
C                 1.4434575109       -3.2405921417       -2.1946761784
C                 0.4732220656       -4.0038172142       -1.5255862554
C                 0.4160723128       -5.3865272638       -1.7066792160
C                 1.3162720184       -6.0267990632       -2.5588354633
C                 2.2785084136       -5.2721559077       -3.2358966945
C                 2.3444191435       -3.8934326312       -3.0545693841
N                 2.0867324321       -1.0366348244       -2.9880650583
N                 2.0578719960        0.2369194816       -2.5391684036
C                 2.6028936498        1.3150554804       -3.3407058569
C                 3.6196267532        1.4163042453        0.2401473456
C                 4.6484797756        2.0661173229        0.9333634018
H                 6.5230992776        2.5812364601        2.9864134030
H                 7.1834367883        3.2092096617        1.4458686628
H                 7.2294570519        4.2197187277        2.9170665278
H                 3.1144176950        5.0330898872        1.5412603299
H                 1.2751274866        3.8755929464        0.3002995022
H                 1.0415997190       -2.2597394409        0.7751016192
H                 0.7990628635       -0.5535179881        1.1557090755
H                -0.6165980482       -2.8776035370        2.0478814736
H                -1.2796054366       -1.3074583845        2.4964404227
H                -3.4784532135       -1.9702341667        1.4913481906
H                -4.0799440995       -3.5892675465        3.2696377055
H                -2.9964854510       -2.3415548591        3.9092646657
H                -2.3704557421       -3.9587233893        3.5429037642
H                -3.8858562586       -4.3358340126        0.8246101306
H                -2.6761855433       -3.5942317610       -0.2423236773
H                -2.1666033385       -4.7065457419        1.0361896835
H                -1.2761548949       -0.2810673284       -1.1086382429
H                -2.7027522815       -1.0650582137       -0.4645711829
H                -2.6833094229        0.3592567214        1.5478402366
H                -0.3182439267        1.4815255272        0.5035611108
H                -3.7349674359        1.0896197946       -0.6561456343
H                -2.2947598407        2.0958754758       -0.9213471575
H                -3.3453862987        4.1036731243       -0.7116417826
H                -4.5353515387        5.7685225406        0.7312959030
H                -4.7973823622        4.5121818481        1.9617862341
H                -3.1490833504        5.0461095993        1.5849187816
H                -5.3053506636        2.6590920764       -1.3154246479
H                -6.0781769402        3.0639990937        0.2306630045
H                -5.8264161659        4.3196260254       -1.0026142848
H                -0.2508780888       -3.5028149899       -0.8889509017
H                -0.3441795016       -5.9627075564       -1.1849915766
H                 1.2685038530       -7.1038175383       -2.6979083443
H                 2.9837901391       -5.7612735440       -3.9031926458
H                 3.0931588326       -3.3043604060       -3.5743371720
H                 3.6734736892        1.4489012214       -3.1495842813
H                 2.0777903826        2.2420737460       -3.1015415555
H                 2.4511869593        1.0623452535       -4.3909941463
H                 3.7603199981        0.3977461158       -0.1060410418
H                 5.5783836557        1.5360261862        1.1027931547



