%chk=calculation/no_transfer_pubchem_sampling_4_b3lyp/46406518_rwf.chk
%rwf=calculation/no_transfer_pubchem_sampling_4_b3lyp/46406518_rwf.rwf
%nprocshared=14
%mem=3GB
#p b3lyp/6-31g(d) 6D 10F nosymm GFInput td=(50-50,nstate=2) SCF=XQC 

Gaussian input prepared by ASE

0 1
C                 8.5693078322       -1.8058656108        0.4803599984
C                 7.3321129195       -1.3920470154       -0.2832391394
C                 7.2024221719       -1.6556855830       -1.6492037989
C                 6.0417879513       -1.2862079335       -2.3288133425
C                 4.9820043602       -0.6476778871       -1.6837517236
C                 3.7392294221       -0.2563527496       -2.4493829746
C                 5.1171771703       -0.3797098343       -0.3017443139
N                 4.0458108545        0.2703883619        0.3475562533
C                 3.9134098141        0.6432035531        1.6573131891
O                 4.7328138611        0.4760727890        2.5506262213
C                 2.5979966853        1.3974572316        1.9374691354
N                 1.5350336865        1.1095735057        0.9804823072
C                 0.8657309524       -0.1737329232        1.2634372797
C                -0.5027158611       -0.2071021160        0.5859810097
N                -1.4248982273        0.8213588070        1.1184276515
C                -2.3011530615        0.2947755316        2.1647456056
C                -3.5293249259       -0.4704061309        1.6383416347
O                -4.1356431127       -1.2423989787        2.3697378380
N                -3.8504741421       -0.1458865713        0.3487514266
C                -4.9273801349       -0.5858651267       -0.4501897427
C                -5.8818205438       -1.4925192632        0.0277286832
C                -6.9408433639       -1.9145471248       -0.7847555914
C                -7.9721294020       -2.8765128910       -0.2405788706
C                -7.0293696767       -1.4180906085       -2.0875962087
C                -6.0778171289       -0.5148130091       -2.5615040346
C                -5.0159339907       -0.0797682030       -1.7680125186
C                -3.9988341277        0.8966068499       -2.3118545545
C                -0.7364761769        2.0775851917        1.5138040354
C                -1.6394271179        3.2888865354        1.2673663459
C                 0.5764216149        2.2004609957        0.7264834580
C                 6.2821384342       -0.7489724854        0.3825354909
H                 9.4042257334       -2.0177752833       -0.1955918557
H                 8.8879593123       -1.0251514344        1.1799615205
H                 8.3865854158       -2.7123863913        1.0724295053
H                 8.0085227575       -2.1496999159       -2.1861157733
H                 5.9546073705       -1.4954015166       -3.3927620992
H                 2.8354094240       -0.7419451273       -2.0547148581
H                 3.5599826755        0.8279344203       -2.4277625118
H                 3.8278417234       -0.5473458778       -3.4999972851
H                 3.2273376438        0.5076908048       -0.2052741472
H                 2.8426922642        2.4655389391        1.8931102939
H                 2.3284700043        1.1708271115        2.9817311108
H                 0.7353102806       -0.3200944272        2.3510013611
H                 1.4914393484       -1.0020677723        0.9082410292
H                -0.3761892794       -0.0670276304       -0.4949551022
H                -0.9621923742       -1.1902864434        0.7218008284
H                -1.7893826568       -0.3759251768        2.8725133826
H                -2.6907837877        1.1301807774        2.7579436563
H                -3.1912869184        0.5103765021       -0.0590968026
H                -5.7844802102       -1.8622521464        1.0401943597
H                -7.5010285068       -3.7034970149        0.3026544526
H                -8.5839781833       -3.3023634355       -1.0424662085
H                -8.6507919597       -2.3764279369        0.4628102978
H                -7.8417940333       -1.7364772772       -2.7361958507
H                -6.1579895892       -0.1368966305       -3.5784179777
H                -2.9818038019        0.4794007762       -2.3171287095
H                -3.9630951842        1.8288368189       -1.7304301210
H                -4.2408384654        1.1688847576       -3.3431948399
H                -0.4785593339        2.0426119539        2.5875422159
H                -1.8340703221        3.4092469683        0.1953357781
H                -2.6051368880        3.1781931256        1.7718225182
H                -1.1721556505        4.2068418035        1.6427224561
H                 1.0559293200        3.1533805923        0.9679024880
H                 0.3346480287        2.2346244045       -0.3452618235
H                 6.3554431063       -0.5266056250        1.4391279618



