%chk=./calculation/no_transfer_pubchem_sampling_4_b3lyp/4809270.chk
%nprocshared=7
%mem=6GB
#p b3lyp/6-31g(d) opt SCF=XQC 

Gaussian input prepared by ASE

0 1
C                -6.1644946461        4.0109846202        0.5817438023
O                -5.6468682303        2.7025757835        0.5064749508
C                -4.3074541769        2.5355151873        0.3990024132
C                -3.3716029651        3.5665981518        0.3410440065
C                -2.0282927999        3.2737493442        0.2228890989
C                -1.5815230664        1.9551457670        0.1519121048
C                -0.1539304653        1.7292818550        0.0396081138
N                 0.7379532447        2.5239001652        0.5720505077
N                 1.9415361934        2.0394275674        0.2686526286
C                 1.7957927059        0.9581456655       -0.4535889653
S                 3.1709999849        0.0775436195       -0.9690991224
C                 4.3630401707        1.2236876777       -0.2037481182
C                 3.7959104839        2.3378554910        0.7057146363
O                 4.0633407885        3.4918268116        0.4575062215
C                 3.6256085197        1.8929697249        2.2074237079
C                 4.9564382754        1.7691000135        2.7525117134
N                 6.0098798053        1.6403094391        3.1764918182
C                 2.9030969856        0.6086886239        2.3883863516
N                 3.3276275815       -0.5301671744        1.9732841838
C                 2.4622871230       -1.5450255212        2.2318771494
C                 2.8164173880       -2.9284180132        1.8106088399
C                 1.3274173297       -1.1545287365        2.8743222703
S                 1.3383217272        0.5415133197        3.1796795904
N                 0.4786172234        0.7037817023       -0.6408891748
C                -0.0359223633       -0.4046951632       -1.3994677218
C                 0.0326139987       -1.7077435381       -0.5893153662
C                -0.4676824882       -2.8548541942       -1.4202711523
C                 0.4126843650       -3.5750950966       -2.2168324476
C                -0.0460573038       -4.6126241426       -3.0086199015
C                -1.3917728953       -4.9384782748       -3.0149272422
C                -2.2762492633       -4.2229245254       -2.2263858834
C                -1.8161110711       -3.1853505686       -1.4349452449
C                -2.5193638895        0.9251342040        0.2361112568
C                -3.8601344948        1.2123224117        0.3544931606
H                -5.7864921599        4.5413569656        1.4609429596
H                -7.2435253667        3.8949349138        0.6675201957
H                -5.9331330396        4.5861271831       -0.3200337605
H                -3.6791706751        4.5987829825        0.3882124906
H                -1.2998987133        4.0678329056        0.1827934063
H                 5.0494965881        0.6047139233        0.3746847910
H                 4.8969409239        1.7142402031       -1.0191701250
H                 3.0990218590        2.7099099485        2.7100258457
H                 1.9445120763       -3.5761749449        1.8435012907
H                 3.2276786668       -2.9112742586        0.8034267362
H                 3.5816577788       -3.3288553559        2.4742495597
H                 0.5004933743       -1.7570694600        3.1911791762
H                 0.5796611539       -0.5112642509       -2.2984565814
H                -1.0618991470       -0.1800465490       -1.6984480386
H                -0.5628728403       -1.6061970337        0.3209326977
H                 1.0705358857       -1.8791909645       -0.2995242818
H                 1.4632120681       -3.3218691561       -2.2112371523
H                 0.6481113742       -5.1685294430       -3.6210284785
H                -1.7501814746       -5.7490376572       -3.6314717102
H                -3.3267087717       -4.4734157548       -2.2265691512
H                -2.5116687243       -2.6327696552       -0.8187939928
H                -2.2053288636       -0.1061133671        0.2479530946
H                -4.5925687479        0.4237596286        0.4241788425



