%chk=calculation/no_transfer_pubchem_sampling_4_b3lyp/49827074_rwf.chk
%rwf=calculation/no_transfer_pubchem_sampling_4_b3lyp/49827074_rwf.rwf
%nprocshared=14
%mem=3GB
#p b3lyp/6-31g(d) 6D 10F nosymm GFInput td=(50-50,nstate=2) SCF=XQC 

Gaussian input prepared by ASE

0 1
C                 5.6401597408       -2.0996780515       -0.2262434650
O                 5.7963956845       -0.7080384331        0.0102612124
C                 4.6835935428        0.0804451879       -0.0478118161
C                 3.3940028961       -0.3929175255       -0.2975495640
C                 2.3007529381        0.4895403194       -0.3204407378
C                 0.8794672523        0.0068214156       -0.5596857736
C                 0.6589342554       -0.9320653640       -1.7722251161
C                 0.3084987115       -0.2157690009       -3.0857164612
O                 0.9438688838        0.6828798788       -3.6081172974
C                -0.9598645709       -0.8056166968       -3.5818772015
C                -1.6210358173       -0.5271421475       -4.7815268153
C                -2.8184332784       -1.1871108113       -5.0443559925
C                -3.3365994242       -2.1020772446       -4.1137271266
C                -2.6736961509       -2.3699465803       -2.9139029864
C                -1.4731740201       -1.7110356231       -2.6447731417
C                -0.5589464657       -1.8384047544       -1.4420234711
C                -1.0965292185       -1.3929139099       -0.0309718351
C                -2.3520228950       -0.5329609873        0.0049875876
C                -2.5008330229        0.6445344241       -0.7410506678
C                -3.6721257523        1.4055283685       -0.6410366512
O                -3.9082561865        2.5501276029       -1.3415266904
C                -2.9082551889        3.0076772046       -2.2410235151
C                -4.7086300548        1.0082247736        0.2216814526
O                -5.8249966605        1.7891091203        0.3777589102
C                -6.8601680195        1.5411158454       -0.5738124310
C                -4.5680667419       -0.1783823258        0.9578820345
O                -5.6319708072       -0.5067500284        1.7458327162
C                -5.5407203770       -1.6758077092        2.5426064247
C                -3.3942174679       -0.9368579285        0.8507234190
C                 0.1825471783       -0.7336270233        0.6358201402
C                -0.0786467414        0.1817056657        1.8641920675
C                 0.5339643612       -0.5301653160        3.0489386926
C                 0.5344576123       -0.1590290399        4.3945074963
C                 1.1806640440       -0.9832553264        5.3182204732
C                 1.8227171440       -2.1673524827        4.9176156310
C                 1.8234814091       -2.5408829307        3.5778526921
C                 1.1740837752       -1.7092264422        2.6597043813
C                 1.0374719984       -1.8991057388        1.2045394955
O                 1.4814303280       -2.8395617197        0.5598731916
C                 2.5290864590        1.8501147185       -0.1077462440
C                 3.8178367339        2.3327767819        0.1456078673
O                 3.9748246308        3.6732091086        0.4079227357
C                 4.7097422192        4.4110598434       -0.5741831674
C                 4.9060531619        1.4550277899        0.1810331513
O                 6.1779000903        1.9353824045        0.3902669925
C                 6.6647343002        1.7570078660        1.7227550631
H                 5.2609970827       -2.2942964655       -1.2377700939
H                 6.6376385483       -2.5314822360       -0.1250091021
H                 4.9639991860       -2.5622882545        0.5041857478
H                 3.2314393868       -1.4495095928       -0.4622100450
H                 0.2793647164        0.9095513546       -0.7215685112
H                 1.5527084724       -1.5374638084       -1.9504936601
H                -1.1912386966        0.1831219075       -5.4826828522
H                -3.3544682137       -1.0008897166       -5.9709852258
H                -4.2721004525       -2.6109752299       -4.3319781096
H                -3.0950769188       -3.0748856030       -2.2020531437
H                -0.2269389357       -2.8747346368       -1.3357493538
H                -1.3409547071       -2.2986363659        0.5339092225
H                -1.7246177482        0.9598991039       -1.4231595908
H                -1.9713939257        3.2400042384       -1.7183155486
H                -2.7077352070        2.2732238666       -3.0314340472
H                -3.3069374723        3.9209891438       -2.6862101859
H                -6.5146844809        1.7408971466       -1.5953320202
H                -7.2230423278        0.5078859748       -0.5016271255
H                -7.6735202056        2.2275215331       -0.3259430385
H                -4.7071871464       -1.6161990483        3.2549436834
H                -5.4244943840       -2.5791535049        1.9286033267
H                -6.4813442500       -1.7340675371        3.0934973345
H                -3.2833926894       -1.8501130403        1.4243837907
H                -1.1461410826        0.3702229793        2.0158031629
H                 0.3960171882        1.1609741750        1.7256109669
H                 0.0440783018        0.7541269425        4.7224250423
H                 1.1879880796       -0.7040792193        6.3688336561
H                 2.3168572321       -2.7882251861        5.6597208051
H                 2.3087521393       -3.4506923150        3.2358064755
H                 1.7151896010        2.5683432549       -0.1403422355
H                 5.7352431951        4.0416991614       -0.6637378563
H                 4.7174648846        5.4474225321       -0.2276112401
H                 4.2113515979        4.3591995911       -1.5512274236
H                 6.7294199639        0.6937410043        1.9789602575
H                 7.6647339463        2.1971935514        1.7433598330
H                 6.0225478321        2.2750641211        2.4461374448



