%chk=./calculation/no_transfer_pubchem_sampling_4_b3lyp/50780501.chk
%nprocshared=7
%mem=6GB
#p b3lyp/6-31g(d) opt SCF=XQC 

Gaussian input prepared by ASE

0 1
C                 9.3665651424        0.1622239452       -0.5306129303
C                 8.0263150048       -0.3190956136       -0.1426584620
N                 6.8797906182        0.2029745122       -0.4422778601
C                 5.9810411574       -0.6346379294        0.1660906659
C                 4.5482944501       -0.4409377516        0.1020847765
C                 4.0242184824        0.6395524107       -0.6055814479
C                 2.6607510563        0.8279895770       -0.6700363362
C                 1.8008132979       -0.0613180682       -0.0272518393
N                 0.4241756124        0.1599535071       -0.1139045428
C                -0.5858783826       -0.5737745726        0.3917663338
C                -1.7716630902        0.0433870539        0.0346693566
C                -3.0839939615       -0.4830117685        0.4432750638
O                -3.1839952932       -1.3674969035        1.2692621917
N                -4.1476730060        0.1035983923       -0.1922436400
C                -5.5071372169       -0.1443037913       -0.0286624517
C                -6.4014337685        0.5879940783       -0.8123370747
C                -7.7632316315        0.3916460635       -0.6954612680
C                -8.2665069058       -0.5352005238        0.2017407299
C                -7.3664289154       -1.2508601462        0.9697342689
F                -7.8413489847       -2.1572312346        1.8485053594
C                -5.9990646712       -1.0791622487        0.8774082837
C                -1.3578709318        1.1900618315       -0.7038769699
C                -2.1528247049        2.2778494029       -1.3378130064
N                -0.0456472558        1.2287190004       -0.7720967954
C                 2.3215231899       -1.1418569225        0.6828275119
C                 3.6865246532       -1.3281742845        0.7450464861
N                 6.5677231716       -1.6164573097        0.8029952023
O                 7.8991850032       -1.4229921831        0.6095487322
H                 9.8842960101       -0.6072257575       -1.1005335796
H                 9.2620808068        1.0601715551       -1.1306835595
H                 9.9536568129        0.3770622536        0.3604773690
H                 4.7010354423        1.3196169034       -1.0980128468
H                 2.2340670771        1.6568369596       -1.2112346529
H                -0.4547452613       -1.4720801895        0.9567711186
H                -3.9299199393        0.8027837313       -0.8860820097
H                -6.0220130720        1.3150533215       -1.5165478808
H                -8.4409603058        0.9656875129       -1.3086639332
H                -9.3253382083       -0.7046273055        0.3092427508
H                -5.3325041372       -1.6579760432        1.4937636650
H                -2.6907232462        1.9145068460       -2.2150421805
H                -1.4653965635        3.0540358286       -1.6649240510
H                -2.8600928259        2.7111740754       -0.6313058899
H                 1.6692756656       -1.8355225957        1.1881197794
H                 4.1050596248       -2.1589356193        1.2903825633



