%chk=calculation/no_transfer_pubchem_sampling_4_b3lyp/50856990_rwf.chk
%rwf=calculation/no_transfer_pubchem_sampling_4_b3lyp/50856990_rwf.rwf
%nprocshared=14
%mem=3GB
#p b3lyp/6-31g(d) 6D 10F nosymm GFInput td=(50-50,nstate=2) SCF=XQC 

Gaussian input prepared by ASE

0 1
C                 4.0070438114        4.1586472110        1.9245808397
O                 4.0306595221        3.6250315355        0.6070952796
C                 3.8033391454        2.2954477421        0.4417833664
C                 3.5844978189        1.3879033248        1.4865755452
C                 3.3623610367        0.0406561848        1.1962382347
C                 3.3521279081       -0.4082584814       -0.1239066102
N                 3.1312822119       -1.7955546355       -0.4141493962
C                 4.1238909944       -2.7014637277       -0.6482103369
C                 5.5735157697       -2.3404718920       -0.6133769292
C                 3.5303214950       -3.9427494927       -0.8959540059
C                 2.1465179784       -3.7899703072       -0.8101143638
C                 1.8700485266       -2.4423361382       -0.5078443813
C                 0.6990043066       -1.6825460797       -0.3087841796
C                -0.6569778069       -1.9605378833       -0.3148830409
C                -1.2669686252       -3.2594781534       -0.5644854421
O                -0.6962693783       -4.3186357939       -0.8061381941
N                -2.6672583134       -3.2624877439       -0.5218937620
C                -3.5347146532       -2.2289227402       -0.2700057522
S                -5.1816512827       -2.4924936198       -0.2917034246
N                -2.9317984893       -1.0118882937       -0.0189389411
C                -3.7519981486        0.1403902881        0.3105413779
C                -4.0877416399        0.3296467267        1.6503639569
C                -4.8497122869        1.4326487070        2.0148235907
C                -5.2602345175        2.3360815043        1.0349562831
C                -4.9202922660        2.1559282896       -0.3087451454
C                -5.3784831494        3.1573690720       -1.3432072218
C                -4.1478107988        1.0367023229       -0.6896238884
C                -3.7694901207        0.8357743001       -2.1359285710
C                -1.5231509364       -0.7943752483       -0.0344064658
O                -1.0998576824        0.3319371177        0.1808266894
C                 3.5675609299        0.5023207160       -1.1671222925
C                 3.7953691236        1.8418831442       -0.8876758805
H                 3.0312059859        4.0037224676        2.4017846177
H                 4.7934133884        3.7178022481        2.5508486826
H                 4.1907934840        5.2284517693        1.8147452185
H                 3.5800184717        1.7145595890        2.5195646948
H                 3.1894958059       -0.6661494755        2.0023503479
H                 5.8579483096       -1.8980040972        0.3487874589
H                 6.1794467982       -3.2360518142       -0.7719206869
H                 5.8332787637       -1.6110685593       -1.3901148148
H                 4.0723400268       -4.8539149698       -1.1112656443
H                 1.3812573358       -4.5365953383       -0.9428032445
H                 0.8850818246       -0.6307552609       -0.0988076838
H                -3.1002025374       -4.1602334690       -0.7059325694
H                -3.7547414598       -0.3920118833        2.3895745929
H                -5.1227151992        1.5888880299        3.0545201613
H                -5.8563018727        3.2010731595        1.3163691783
H                -4.5319791947        3.6071525635       -1.8779204647
H                -5.9475703522        3.9679658854       -0.8782409933
H                -6.0205168460        2.6928916344       -2.1028792384
H                -3.2361262275       -0.1027825554       -2.2943676673
H                -3.1247981585        1.6497954344       -2.4910950433
H                -4.6581240622        0.8236423239       -2.7779879179
H                 3.5460510410        0.1530308460       -2.1951724630
H                 3.9596161915        2.5623965156       -1.6821634593



