%chk=./calculation/no_transfer_pubchem_sampling_4_b3lyp/54638194.chk
%nprocshared=7
%mem=6GB
#p b3lyp/6-31g(d) opt SCF=XQC 

Gaussian input prepared by ASE

0 1
C                -0.0532760334        2.3310403670        1.6463775523
C                -0.3209919040        1.1291973101        0.7430027239
C                -1.1017152842        1.5967327996       -0.4944867911
N                -2.4462233495        2.0979947082       -0.2544348013
C                -2.8124637229        3.3273102377       -0.9656569164
C                -3.4982810907        4.3398580146       -0.0498212304
C                -3.6708474831        3.0076594933       -2.2017981820
O                -3.0036233790        2.1798011692       -3.1235211497
C                -3.4510837964        1.3697434982        0.2942601250
O                -4.6137962286        1.7444731970        0.2888034010
C                -3.1410147224        0.1098161750        1.0498388708
C                -3.3766326250        0.1422889205        2.4219369372
C                -3.2212965198       -0.9936415028        3.1935027869
C                -2.8596840571       -2.1887813961        2.5928473466
C                -2.6488162147       -2.2362448364        1.2275685431
C                -2.7839559333       -1.0943246830        0.4416106059
C                -2.5516387298       -1.1781187239       -1.0141916343
C                -3.6129610977       -0.9563394768       -1.8843407244
C                -3.4312580490       -1.0384130349       -3.2517977194
C                -2.1819766940       -1.3458194772       -3.7625017484
C                -1.1176632251       -1.5546701349       -2.9042393758
C                -1.2834028770       -1.4707936983       -1.5276255717
C                -0.0610015579       -1.5820995332       -0.6423219961
O                 0.7863825506       -0.4485178634       -0.8221140788
C                 0.9815109712        0.4450635409        0.2620922640
C                 1.7504888052       -0.2099753701        1.4353525503
N                 3.1515601751       -0.4976804665        1.2175791625
C                 3.9761642417        0.6779072473        1.0415213569
C                 3.4125705327       -1.4989549027        0.1957164648
C                 4.8050053407       -2.0543245748        0.3350866157
C                 5.2702963688       -2.4463427414        1.5848033317
C                 6.5434317398       -2.9652587113        1.7290981030
C                 7.3664154268       -3.1056326306        0.6233574307
C                 6.9096482153       -2.7203108547       -0.6246446450
C                 5.6365831410       -2.1944921827       -0.7665001221
H                -0.9871658079        2.8640042343        1.8118234654
H                 0.6578238856        3.0129516814        1.1836474007
H                 0.3341503638        2.0318560395        2.6161170394
H                -0.9047005619        0.3998010021        1.3047904327
H                -1.1392746395        0.7972867801       -1.2369572536
H                -0.5229185071        2.4127621527       -0.9357546623
H                -1.8746160309        3.7757796340       -1.3172469961
H                -3.6389560516        5.2768448838       -0.5825649903
H                -4.4640825012        3.9650614870        0.2718477711
H                -2.8807364512        4.5254294849        0.8261087708
H                -4.5622311560        2.4596887326       -1.8972127809
H                -3.9782621072        3.9516489769       -2.6734483789
H                -2.2067195370        2.6268864816       -3.4310774283
H                -3.6792543964        1.0739314757        2.8768229384
H                -3.3935831835       -0.9506324138        4.2584553257
H                -2.7509881885       -3.0845525992        3.1863643025
H                -2.3878102556       -3.1700488511        0.7492203137
H                -4.5830319954       -0.7160278883       -1.4751788894
H                -4.2610655627       -0.8563475941       -3.9166933787
H                -2.0337914405       -1.4126645398       -4.8300016504
H                -0.1341224748       -1.7677443376       -3.2966927438
H                -0.3481956535       -1.6973642482        0.4044193579
H                 0.5239976514       -2.4610627993       -0.9439313986
H                 1.6210514212        1.2153535856       -0.1864340962
H                 1.6971526754        0.4519899920        2.3013343891
H                 1.2599808389       -1.1499209621        1.7057311566
H                 3.8381416870        1.1688057869        0.0664766403
H                 5.0214551358        0.3814851897        1.1240429193
H                 3.7529455714        1.3942541304        1.8306753407
H                 2.6970774505       -2.3141403807        0.3446125079
H                 3.2667870878       -1.1032549446       -0.8218760993
H                 4.6240981295       -2.3268934505        2.4412544478
H                 6.8964523832       -3.2638421151        2.7056830240
H                 8.3606563991       -3.5128760948        0.7349248374
H                 7.5473981219       -2.8255958714       -1.4904553849
H                 5.2858857656       -1.8910065236       -1.7431887350



