%chk=calculation/no_transfer_pubchem_sampling_4_b3lyp/54638194_rwf.chk
%rwf=calculation/no_transfer_pubchem_sampling_4_b3lyp/54638194_rwf.rwf
%nprocshared=14
%mem=3GB
#p b3lyp/6-31g(d) 6D 10F nosymm GFInput td=(50-50,nstate=2) SCF=XQC 

Gaussian input prepared by ASE

0 1
C                -0.0810078522        2.4297427739        1.7130987088
C                -0.3200095490        1.2365036569        0.7736402845
C                -1.1723510410        1.6715808088       -0.4391958782
N                -2.5462075660        2.1483407590       -0.1593307243
C                -2.9305004817        3.4555622986       -0.7603562036
C                -3.6813614437        4.3805723483        0.2079521328
C                -3.6767860375        3.2853893564       -2.0957885582
O                -2.9589853437        2.4964662982       -3.0374813801
C                -3.5640420003        1.3264631345        0.2646366158
O                -4.7479974819        1.6669090045        0.2096206333
C                -3.2674776965        0.0198349761        0.9814753494
C                -3.6192973419        0.0145607187        2.3416477648
C                -3.4749892715       -1.1282861322        3.1215227069
C                -3.0029762800       -2.3050345516        2.5369765756
C                -2.6829941680       -2.3182599369        1.1823821768
C                -2.8032639055       -1.1671319498        0.3825903098
C                -2.4721785055       -1.2725495733       -1.0709464824
C                -3.5032108862       -1.1476590369       -2.0146367001
C                -3.2517648219       -1.3016556243       -3.3762369491
C                -1.9589938880       -1.5911512336       -3.8141656330
C                -0.9247881134       -1.6974451265       -2.8867008009
C                -1.1564303818       -1.5315268349       -1.5153090301
C                 0.0451548886       -1.5071817207       -0.5869837854
O                 0.8231822765       -0.3191185960       -0.8212997430
C                 1.0085246053        0.6197781947        0.2524031107
C                 1.8964112924        0.0379541503        1.3787167283
N                 3.2763966739       -0.3070074879        1.0475655118
C                 4.0933967110        0.8234178163        0.6308125259
C                 3.4602832721       -1.4905049656        0.2097009235
C                 4.8346174130       -2.1209515081        0.3724783465
C                 5.4044576755       -2.2820405166        1.6427488394
C                 6.6419682249       -2.9066159666        1.7931170725
C                 7.3299962114       -3.3838368394        0.6741215216
C                 6.7729860436       -3.2257774641       -0.5950753773
C                 5.5355299368       -2.5945782863       -0.7417735934
H                -1.0334988837        2.9211956879        1.9382222135
H                 0.5791610606        3.1754908228        1.2496657310
H                 0.3649694614        2.1323651730        2.6666845182
H                -0.8581953536        0.4692367254        1.3379819939
H                -1.2063547566        0.8868084472       -1.1903722510
H                -0.6507877170        2.5101641346       -0.9105189422
H                -1.9752860657        3.9449062206       -0.9862095919
H                -3.7749942641        5.3779230415       -0.2380502784
H                -4.6767613478        3.9984240103        0.4344008075
H                -3.1235411052        4.4833186557        1.1449058340
H                -4.6198633522        2.7665295168       -1.9239957654
H                -3.9035317340        4.2858550523       -2.4991601865
H                -2.1644024663        2.9878031867       -3.2979117561
H                -4.0132319684        0.9263070270        2.7805842435
H                -3.7417176124       -1.1042944733        4.1745303195
H                -2.8992503092       -3.2109661953        3.1280258766
H                -2.3464346360       -3.2401404027        0.7150491799
H                -4.5092439156       -0.9306531398       -1.6669976017
H                -4.0638779872       -1.1999496512       -4.0904523086
H                -1.7553672171       -1.7224383491       -4.8735401662
H                 0.0900726389       -1.8895686992       -3.2270947499
H                -0.2617977751       -1.5826308340        0.4581091881
H                 0.6981909039       -2.3621904352       -0.8034399358
H                 1.5678491713        1.4261924956       -0.2401587629
H                 1.9406859510        0.7690435471        2.1944837508
H                 1.4142378808       -0.8574083525        1.7926859510
H                 3.8499130014        1.2081173131       -0.3771260988
H                 5.1467914548        0.5272239065        0.6251473987
H                 3.9767264294        1.6448021130        1.3472007169
H                 2.7018113826       -2.2223289412        0.5179421097
H                 3.2750290670       -1.2884631363       -0.8593642150
H                 4.8701161844       -1.8978937995        2.5071797935
H                 7.0713059126       -3.0228550973        2.7852681395
H                 8.2945342014       -3.8709480601        0.7916535071
H                 7.3032904801       -3.5865567082       -1.4728259496
H                 5.1081631180       -2.4671877464       -1.7344327124



