%chk=calculation/no_transfer_pubchem_sampling_4_b3lyp/55888451_rwf.chk
%rwf=calculation/no_transfer_pubchem_sampling_4_b3lyp/55888451_rwf.rwf
%nprocshared=14
%mem=3GB
#p b3lyp/6-31g(d) 6D 10F nosymm GFInput td=(50-50,nstate=2) SCF=XQC 

Gaussian input prepared by ASE

0 1
C                -6.3074221783       -1.2035596200        2.9674728434
O                -6.6582849042       -0.4775756411        1.7995735761
C                -5.6521004403        0.0171259328        1.0287583149
C                -4.2940089069       -0.1364910559        1.2854789516
C                -3.3286715971        0.4282733683        0.4236231169
C                -1.8890076701        0.3001077737        0.6597618013
C                -1.2763023783       -0.2974767862        1.7001445962
C                 0.1912569852       -0.3593248008        1.9412364549
O                 0.6276229264       -0.4436443018        3.0869582542
N                 0.9804398111       -0.3202100175        0.8090263377
C                 2.3900938012       -0.3118305322        0.7040806119
C                 3.2302347051       -0.2386509853        1.8279235681
C                 4.6094633341       -0.2218541081        1.6726171771
C                 5.1901988054       -0.2745663837        0.4001506400
O                 6.5580395763       -0.2281787875        0.3702178343
C                 7.2697765470       -0.3401690228       -0.8724615482
C                 8.6497953767        0.2538590483       -0.6103179155
C                 7.3376680298       -1.7987690578       -1.3290361714
C                 4.3538520404       -0.3499593016       -0.7183896849
C                 2.9598479258       -0.3683616183       -0.5841185083
C                 2.0960317327       -0.4487752139       -1.8230615027
C                -3.7577104299        1.1286653358       -0.7084693542
C                -5.1192268743        1.2771169234       -0.9764291298
C                -6.0766363226        0.7407208935       -0.1099736801
O                -7.4222330733        0.8820380874       -0.3188045192
C                -7.7481725673        1.8971966768       -1.2682969484
C                -6.8463123848        1.7828332375       -2.4865786444
O                -5.4829419324        1.9696256067       -2.1061010934
H                -5.7338005254       -0.5845322576        3.6696915451
H                -5.7285214266       -2.1040963611        2.7237400855
H                -7.2519439167       -1.4951006730        3.4299063893
H                -3.9725062297       -0.6891121176        2.1585634711
H                -1.2726843032        0.7782891609       -0.1022504524
H                -1.8441976544       -0.7141159693        2.5270720392
H                 0.4809902676       -0.3982718071       -0.0636419485
H                 2.7864846737       -0.2039152798        2.8126951514
H                 5.2607240582       -0.1639208393        2.5391471751
H                 6.7612845033        0.2694580218       -1.6324405593
H                 9.2603490125        0.2193932814       -1.5191354360
H                 8.5647291090        1.2951055274       -0.2848909549
H                 9.1637427371       -0.3110579934        0.1749463517
H                 7.8738786940       -1.8777989582       -2.2817528237
H                 7.8681305000       -2.3998631746       -0.5823958660
H                 6.3390265261       -2.2254794834       -1.4617093298
H                 4.7684095687       -0.3972465785       -1.7191352594
H                 2.7127717220       -0.4817771194       -2.7255070885
H                 1.4645812371       -1.3486555067       -1.8321355641
H                 1.4296052046        0.4202843794       -1.9215110438
H                -3.0464302229        1.5669117540       -1.4018554274
H                -8.7981449114        1.7448023478       -1.5308840610
H                -7.6317666612        2.8874289498       -0.8068630925
H                -7.0691843251        2.5588110958       -3.2235223088
H                -6.9708205747        0.7962929508       -2.9540833702



