%chk=calculation/no_transfer_pubchem_sampling_4_b3lyp/56089859_rwf.chk
%rwf=calculation/no_transfer_pubchem_sampling_4_b3lyp/56089859_rwf.rwf
%nprocshared=14
%mem=3GB
#p b3lyp/6-31g(d) 6D 10F nosymm GFInput td=(50-50,nstate=2) SCF=XQC 

Gaussian input prepared by ASE

0 1
O                 0.9738317027       -2.2255857293       -2.8753344509
C                 1.4419824584       -2.3509984735       -1.7478941270
C                 2.8222800485       -1.8200545234       -1.3650826100
C                 3.7306123973       -1.7273240940       -2.5935494527
C                 4.9897411692       -0.9772048874       -2.3163292621
N                 5.2789569057       -0.2079942563       -1.3084188273
C                 6.5581876290        0.2202176407       -1.6144418870
C                 7.3252526661        1.1284293521       -0.7549011363
C                 8.6204018323        1.5437945532       -1.0941404544
C                 9.2900578258        2.4051647527       -0.2333947308
C                 8.6441063652        2.8207075190        0.9341580090
N                 7.4083611165        2.4354268336        1.2752553893
C                 6.7714761596        1.6073781953        0.4414937244
N                 7.0329103062       -0.2585637421       -2.7424532259
O                 5.9851462561       -1.0643304931       -3.2175427400
N                 0.7520637828       -2.9662735009       -0.7426961924
C                -0.6087385867       -3.4538737950       -0.9460885596
C                -1.0447460143       -4.3288856361        0.2303664153
C                -1.7223961946       -3.3611451478        1.2026678499
O                -1.9425488686       -3.5838944267        2.3812749898
N                -2.0436746056       -2.2159000757        0.4900792998
C                -2.7838704176       -1.1078073722        0.9770048806
C                -3.3346130941       -0.1896457991        0.0679665143
C                -4.0490084231        0.9209613361        0.5131923001
C                -4.2359700371        1.1215345410        1.8812238544
O                -4.8656311566        2.2365935657        2.3987839137
C                -6.0031081949        2.7468507044        1.8018375590
C                -7.0049558017        1.9335284875        1.2636400081
C                -8.1566410602        2.5256979460        0.7438267370
C                -8.3174587844        3.9125775112        0.7659454415
C                -7.3129484782        4.7123103830        1.3155284812
C                -6.1531588161        4.1350192975        1.8311816039
C                -3.6961277819        0.2138264218        2.7935880987
C                -2.9715526570       -0.8891873938        2.3539138532
C                -1.6531764597       -2.3149535204       -0.9210106609
H                 2.6990235746       -0.8213085776       -0.9277330298
H                 3.2801881785       -2.4410469802       -0.5865186336
H                 3.1809897645       -1.2355559927       -3.4052027609
H                 3.9870835559       -2.7238084222       -2.9709463247
H                 9.0795727950        1.1928370587       -2.0130903544
H                10.2943022485        2.7511891755       -0.4584868829
H                 9.1425994021        3.4951137053        1.6285202680
H                 5.7685153590        1.3016891194        0.7279335238
H                 1.1427319749       -2.9823682389        0.1898358061
H                -0.6309774735       -3.9653184181       -1.9099650048
H                -0.2307948782       -4.8714865402        0.7189636479
H                -1.7858102609       -5.0721897993       -0.0881857834
H                -3.2130688140       -0.3288817945       -1.0002762130
H                -4.4582783632        1.6254202588       -0.2031607190
H                -6.8842944151        0.8552544130        1.2583591689
H                -8.9362715060        1.8936408139        0.3268050950
H                -9.2179542518        4.3653305921        0.3611786835
H                -7.4276812402        5.7926629623        1.3401874477
H                -5.3604048661        4.7388484314        2.2614281408
H                -3.8442238079        0.3863116548        3.8549348977
H                -2.5652848352       -1.5923429580        3.0664836129
H                -1.2274104488       -1.3759503020       -1.2808273790
H                -2.5175928811       -2.5644363350       -1.5525418123



