%chk=calculation/no_transfer_pubchem_sampling_4_b3lyp/56902204_rwf.chk
%rwf=calculation/no_transfer_pubchem_sampling_4_b3lyp/56902204_rwf.rwf
%nprocshared=14
%mem=3GB
#p b3lyp/6-31g(d) 6D 10F nosymm GFInput td=(50-50,nstate=2) SCF=XQC 

Gaussian input prepared by ASE

0 1
C                 7.2658823115        1.8913370651       -0.6208202674
N                 6.3241768711        0.8539836281       -0.2542043615
C                 4.9720061367        1.1432261979        0.1783307176
C                 4.4602950432       -0.2687050698        0.5258716228
C                 3.4602298350       -0.3365846167        1.7058685852
C                 2.1814451728       -0.9487260226        1.1048167297
N                 2.3065091261       -0.6524653823       -0.3289254190
C                 1.3481315823       -1.3392960627       -1.1860604777
C                -0.0615134560       -0.8301292352       -0.9959909201
C                -1.1565500506       -1.6722779205       -0.8199480254
N                -2.4102232379       -1.2323229655       -0.6842093838
C                -2.6055088205        0.0973660309       -0.7097262914
C                -3.9875291299        0.6478338102       -0.6056280590
C                -4.1854376295        1.9157166653       -1.1379333730
C                -5.4459263121        2.5428042572       -1.1349350186
C                -6.5266729998        1.9026002276       -0.5778248962
C                -6.3840464167        0.6162654382        0.0032490174
C                -7.5040109401       -0.0215757741        0.6022705517
C                -7.3870182946       -1.2573924183        1.1919582763
C                -6.1306836219       -1.9037006298        1.2033664235
C                -5.0251108096       -1.3188609360        0.6243115518
C                -5.1038072111       -0.0425753851       -0.0027871781
N                -1.6105017841        1.0010508303       -0.8603392899
C                -0.3741364972        0.5353980151       -1.0018801787
C                 3.7037487670       -0.9457943229       -0.6349054477
O                 5.6745761719       -0.9976869196        0.8159368199
C                 6.7576165332       -0.3379638281        0.2874603471
O                 7.8815088972       -0.7799197398        0.3100784499
H                 8.2349273518        1.4192141890       -0.7910621805
H                 7.3706915123        2.6436573280        0.1750477898
H                 6.9411430644        2.3950838527       -1.5377534976
H                 4.9652924495        1.8101848977        1.0562961302
H                 4.3701347455        1.6098882742       -0.6092704422
H                 3.2685413256        0.6639815717        2.1058371449
H                 3.8769211433       -0.9456201488        2.5118936069
H                 1.2624926788       -0.5188823579        1.5130455488
H                 2.1524229499       -2.0404435108        1.2851986771
H                 1.6591774967       -1.1693465248       -2.2259177176
H                 1.3662171189       -2.4367077012       -1.0309146378
H                -1.0229648183       -2.7544952900       -0.7892455745
H                -3.3337938801        2.4271827755       -1.5705993127
H                -5.5544161063        3.5294770224       -1.5765376852
H                -7.5072297617        2.3730288818       -0.5682813311
H                -8.4601033106        0.4966666460        0.5887578704
H                -8.2501447311       -1.7338557755        1.6490179934
H                -6.0328513717       -2.8787194589        1.6738987879
H                -4.0788576987       -1.8398269112        0.6240035643
H                 0.4179817152        1.2752071240       -1.1108161390
H                 3.9873400886       -0.5587262019       -1.6196772970
H                 3.9296298017       -2.0285556196       -0.6097188036



