%chk=calculation/no_transfer_pubchem_sampling_4_b3lyp/57079451_rwf.chk
%rwf=calculation/no_transfer_pubchem_sampling_4_b3lyp/57079451_rwf.rwf
%nprocshared=14
%mem=3GB
#p b3lyp/6-31g(d) 6D 10F nosymm GFInput td=(50-50,nstate=2) SCF=XQC 

Gaussian input prepared by ASE

0 1
C                -3.5608425695        1.6086321310       -0.1835702210
C                -3.4735138118        0.1110113132        0.1478581007
C                -4.6731316586       -0.3033707740        1.0485562264
C                -6.0335953644       -0.1494713044        0.3988613376
C                -6.4479673733       -1.0410380847       -0.6023585372
C                -7.6951361505       -0.9104364900       -1.2123258128
C                -8.5590952780        0.1181996004       -0.8292154863
C                -8.1637569863        1.0102695621        0.1677216558
C                -6.9128750054        0.8747974453        0.7740149208
C                -2.1410882821       -0.2989086120        0.8219309125
C                -2.0503818304       -1.8407462200        1.0977225242
C                -0.5577763255       -2.2504174031        0.9572053057
C                 0.1702024375       -0.8966973467        0.9113416192
C                 1.6242961290       -0.8159188076        0.4820841645
C                 2.1191986351        0.3365559918       -0.0172576470
C                 1.2159960877        1.5324557981       -0.2991502155
C                -0.2262896291        1.4356455312        0.2454426914
C                -0.7890546594        0.0143309780        0.0994284846
C                -0.8532244014       -0.3946297363       -1.3885290670
C                 3.5971242274        0.4883875557       -0.4349202244
C                 3.6648238463        0.2713069796       -1.9724352121
C                 4.1620814431        1.9095242104       -0.0947234842
C                 5.6922126017        1.9715610367        0.1597883563
C                 6.5035738182        0.8719173219       -0.5325422457
O                 7.8937255742        0.9765879438       -0.2320414649
C                 5.9556258387       -0.5416493171       -0.2012683983
C                 4.4859927548       -0.5690167922        0.3162008236
C                 4.5009224389       -0.2513215291        1.7635533679
N                 4.5424728080       -0.0478505805        2.9068738577
C                 3.8786442255       -1.9832729310        0.1824285676
C                 2.4654100499       -2.0425453642        0.7668224587
H                -4.5576361130        1.8652802868       -0.5564167406
H                -2.8395730354        1.9021252168       -0.9509340168
H                -3.3702343145        2.2213172903        0.7073810813
H                -3.5666463460       -0.4515382280       -0.7928013410
H                -4.6381040543        0.2921035054        1.9713302066
H                -4.5492728200       -1.3492817390        1.3513214040
H                -5.7861670223       -1.8513601140       -0.9020825149
H                -7.9957263928       -1.6153498438       -1.9834435257
H                -9.5327404094        0.2197522890       -1.3011890519
H                -8.8292678996        1.8120064930        0.4776964558
H                -6.6149161516        1.5721077527        1.5540489162
H                -2.1012080303        0.2221328811        1.7918398092
H                -2.6725835798       -2.3968810013        0.3861094378
H                -2.4329743358       -2.0816267398        2.0946091409
H                -0.2214911187       -2.8827724894        1.7852423351
H                -0.3947491686       -2.8203878495        0.0349330436
H                 0.1368695817       -0.5145598761        1.9465258524
H                 1.1775469309        1.6919576822       -1.3877074605
H                 1.6676048381        2.4473214352        0.1006514774
H                -0.8402296187        2.1832385219       -0.2669955072
H                -0.2314268346        1.7046195796        1.3106829927
H                -1.4376716265        0.3300784566       -1.9663933955
H                -1.3239515460       -1.3733605130       -1.5275825535
H                 0.1448984767       -0.4479077818       -1.8333385060
H                 4.6692698345        0.4093028765       -2.3816048271
H                 3.3114072985       -0.7225931087       -2.2607229071
H                 3.0166949055        1.0005256605       -2.4688717909
H                 3.8954516688        2.5923928806       -0.9090625181
H                 3.6652240449        2.2908897326        0.8025121079
H                 5.8795520311        1.8943218043        1.2386764829
H                 6.0862985726        2.9452631420       -0.1504467250
H                 6.4688144944        1.0289504506       -1.6150808173
H                 7.9832214804        0.9474260406        0.7349985345
H                 6.0262559511       -1.1847921564       -1.0853904314
H                 6.6036014991       -0.9969130031        0.5566832975
H                 3.8644259205       -2.2445354269       -0.8808235662
H                 4.5296015596       -2.7139660708        0.6768306956
H                 1.9561949804       -2.9358329419        0.3842189676
H                 2.5190637583       -2.1833492013        1.8572285993



