%chk=./calculation/no_transfer_pubchem_sampling_4_b3lyp/57079451.chk
%nprocshared=7
%mem=6GB
#p b3lyp/6-31g(d) opt SCF=XQC 

Gaussian input prepared by ASE

0 1
C                -3.5192470376        1.5591489768       -0.1558425340
C                -3.4196074409        0.0781479699        0.2018759537
C                -4.6204241040       -0.2955381706        1.0963443791
C                -5.9257429810       -0.1603614016        0.3672064424
C                -6.2794573640       -1.0857022878       -0.6081482269
C                -7.4681603779       -0.9633421695       -1.3034598775
C                -8.3261413150        0.0892694622       -1.0322057075
C                -7.9875396929        1.0141832788       -0.0602958706
C                -6.7959138876        0.8890697340        0.6326242800
C                -2.1121328493       -0.2768361276        0.9268034357
C                -2.0118582092       -1.7950291542        1.2291962888
C                -0.5353358456       -2.2003229150        1.0702188600
C                 0.1874481495       -0.8577626111        1.0237219207
C                 1.6039350650       -0.7850585754        0.5230644863
C                 2.0761747561        0.3625413328        0.0347032413
C                 1.1800037717        1.5552765571       -0.2126238140
C                -0.2344777371        1.4528883184        0.3685941372
C                -0.7735832491        0.0342014741        0.2171469364
C                -0.8123244007       -0.3780002607       -1.2559525512
C                 3.5158093232        0.5090256291       -0.4543299342
C                 3.4864443702        0.3309663032       -1.9830425769
C                 4.1044352524        1.8919353374       -0.0807611140
C                 5.6122482398        1.8917851394        0.2053284467
C                 6.3764171562        0.8595587436       -0.6204592632
O                 7.7670622721        0.9483565181       -0.4070911554
C                 5.8507117931       -0.5531201286       -0.3034482528
C                 4.4000663962       -0.5687662946        0.2209045055
C                 4.4246213300       -0.3103251241        1.6474678650
N                 4.4615397555       -0.1464453359        2.7792412521
C                 3.7868774578       -1.9645788451        0.0465991037
C                 2.4264543239       -2.0262800810        0.7297856779
H                -4.5203778896        1.7843037473       -0.5177580612
H                -2.8171791734        1.8260018534       -0.9392935965
H                -3.3213364282        2.1774176366        0.7171597396
H                -3.4902359127       -0.5054270793       -0.7209220880
H                -4.6172486342        0.3512913357        1.9760518465
H                -4.5151048198       -1.3271139237        1.4343909209
H                -5.6171774558       -1.9136000790       -0.8199162764
H                -7.7285466117       -1.6919504712       -2.0577551894
H                -9.2555547882        0.1856883108       -1.5739650210
H                -8.6533256970        1.8363717986        0.1594618906
H                -6.5390099954        1.6145077801        1.3919185069
H                -2.1086685826        0.2711016276        1.8760643994
H                -2.6369967035       -2.3636044730        0.5401082351
H                -2.3590617355       -2.0060201492        2.2401595235
H                -0.1967450688       -2.8256270211        1.8953075124
H                -0.3868625998       -2.7526599171        0.1423806498
H                 0.2011928949       -0.4733996985        2.0533550288
H                 1.1052333188        1.6945643625       -1.2956146718
H                 1.6406291529        2.4602197788        0.1852118732
H                -0.8647393112        2.1870580755       -0.1317922474
H                -0.2103101151        1.7088833465        1.4301924173
H                -1.2912655034        0.3918913086       -1.8557948321
H                -1.3658610423       -1.3022032499       -1.3891741166
H                 0.1945911909       -0.5298759960       -1.6347959472
H                 4.4810432858        0.2526067048       -2.4082153194
H                 2.9224990421       -0.5584678245       -2.2549697858
H                 2.9935922692        1.1858884819       -2.4396950269
H                 3.8911051458        2.5948753176       -0.8871864956
H                 3.6125688670        2.2574890095        0.8222571957
H                 5.7906848796        1.6775070965        1.2627992351
H                 6.0205974043        2.8834639950        0.0011443770
H                 6.2638927015        1.0865006354       -1.6850396597
H                 7.9424248847        0.8631367832        0.5379103468
H                 5.9218543637       -1.1868186858       -1.1887338105
H                 6.4995901456       -0.9971454575        0.4584386852
H                 3.6881132377       -2.1779837130       -1.0180760327
H                 4.4549633214       -2.7154478269        0.4758456427
H                 1.8747641845       -2.8919541571        0.3578197765
H                 2.5579658569       -2.1703565549        1.8076840410



