%chk=calculation/no_transfer_pubchem_sampling_4_b3lyp/57531472_rwf.chk
%rwf=calculation/no_transfer_pubchem_sampling_4_b3lyp/57531472_rwf.rwf
%nprocshared=14
%mem=3GB
#p b3lyp/6-31g(d) 6D 10F nosymm GFInput td=(50-50,nstate=2) SCF=XQC 

Gaussian input prepared by ASE

0 1
C                 4.2768452848        2.7475939813       -1.6065136633
C                 4.6866967603        1.4088113554       -1.0478566378
C                 6.0183805011        0.9965087817       -1.0085087708
C                 6.3958638309       -0.2434856569       -0.4884632395
C                 5.4326431972       -1.1221391723        0.0137676145
C                 5.8115308130       -2.4824022385        0.5868062494
C                 6.7103394237       -2.3500355364        1.8307339536
C                 6.4651371342       -3.3894241822       -0.4728299358
C                 4.0878021702       -0.7241402883       -0.0196058618
C                 3.7192668151        0.5199954838       -0.5393041447
O                 2.4238803948        0.9715980703       -0.6055118390
C                 1.3874533214        0.1446388830       -0.0902628760
C                 0.0692721202        0.8630200231       -0.2751836277
C                 0.0328864861        2.2511038735       -0.3606118137
N                -1.0534658677        2.9659879857       -0.6864195553
C                -2.1512036411        2.2491580369       -0.9610512878
C                -3.3628781992        3.0005756114       -1.4290115490
C                -4.4840342400        3.1288565859       -0.5860044778
C                -4.4954501922        2.5356026794        0.8045836137
C                -5.5987231087        3.8372492746       -1.0487971837
C                -5.6089874013        4.4035754852       -2.3209773647
C                -4.4940302143        4.2725212521       -3.1453520029
C                -3.3577121926        3.5790851545       -2.7143818613
C                -2.1575352513        3.4567130121       -3.6263413491
N                -2.2590002044        0.9202185112       -0.8556558270
C                -1.1753767612        0.2099482504       -0.4877326243
N                -1.3428548050       -1.1602362532       -0.3893426260
C                -2.5569596645       -1.7835822789       -0.9121614019
C                -3.5987425622       -2.0321321980        0.2056123106
N                -2.9788764891       -2.2743101870        1.5252305643
C                -2.9979785835       -1.1532879350        2.4704634972
C                -3.4235536801       -1.5321011676        3.8999332784
N                -4.2031447709       -2.6447025538        3.9735500878
O                -3.1244089841       -0.8317046732        4.8566913031
C                -1.6661819140       -2.9139687188        1.3528498469
C                -1.0581799073       -3.4373095709        2.6553310765
C                -0.6602329474       -1.9737406282        0.6228452398
H                 3.8030608408        3.3749512925       -0.8411766109
H                 5.1452024133        3.2871267002       -1.9967580965
H                 3.5461153836        2.6384922399       -2.4163915366
H                 6.7813977603        1.6676762538       -1.3967337558
H                 7.4469057474       -0.5192617431       -0.4788812656
H                 4.8801154900       -2.9705804372        0.9063010609
H                 6.9231492034       -3.3358731801        2.2615657282
H                 7.6695006264       -1.8822998099        1.5794762960
H                 6.2323083157       -1.7356695035        2.6014520159
H                 7.4142735248       -2.9686644214       -0.8249762917
H                 6.6751369908       -4.3821144039       -0.0565706079
H                 5.8130746876       -3.5144641227       -1.3442146035
H                 3.3351279986       -1.4036298050        0.3659755296
H                 1.5993115939       -0.0766682129        0.9666180008
H                 1.3697147412       -0.8111231629       -0.6305014411
H                 0.9461275950        2.8161247480       -0.1965503054
H                -3.6247493768        2.8564587841        1.3885251134
H                -4.4695241301        1.4405056467        0.7685605603
H                -5.3949584939        2.8364766474        1.3502222293
H                -6.4636826499        3.9463882052       -0.3987650552
H                -6.4827105171        4.9493893574       -2.6679215422
H                -4.4984260700        4.7150649693       -4.1386824511
H                -2.3629701462        3.9073695016       -4.6022579867
H                -1.8813292528        2.4080122811       -3.7925598734
H                -1.2816317493        3.9525526061       -3.1946196013
H                -2.2630472531       -2.7338984184       -1.3770026647
H                -2.9765144142       -1.1437858546       -1.6868627032
H                -4.2645402144       -1.1696831085        0.2866191531
H                -4.2167975664       -2.8980599532       -0.0740125802
H                -2.0410410596       -0.6233519245        2.5637227834
H                -3.7219587121       -0.4065897152        2.1277145480
H                -4.4804111588       -2.9878176825        4.8816055284
H                -4.2719496627       -3.2351960470        3.1558636598
H                -1.8436251274       -3.7828605232        0.7053156864
H                -0.0970868305       -3.9226882506        2.4495508772
H                -0.8769980461       -2.6340909725        3.3774567849
H                -1.7173635379       -4.1730646838        3.1247034602
H                 0.1378169106       -2.5908410539        0.1826459239
H                -0.1955085252       -1.3083732952        1.3553039185



