%chk=./calculation/no_transfer_pubchem_sampling_4_b3lyp/57531472.chk
%nprocshared=7
%mem=6GB
#p b3lyp/6-31g(d) opt SCF=XQC 

Gaussian input prepared by ASE

0 1
C                 2.0197174134        0.6196311355       -1.7180826738
C                 3.2849480862        0.2007362254       -1.0300390399
C                 4.3995273019       -0.1541665313       -1.7795968867
C                 5.6018058674       -0.4917808053       -1.1901874635
C                 5.7386695075       -0.4746629546        0.1920763063
C                 7.0476228476       -0.8144630596        0.8610299816
C                 8.1366906196        0.1792303510        0.4518223993
C                 7.4714014897       -2.2482480306        0.5354418114
C                 4.6285483088       -0.1393391057        0.9499258639
C                 3.4118831455        0.1866957131        0.3613641362
O                 2.3893067650        0.5379595286        1.2201363232
C                 1.2263724561       -0.2776124540        1.1996389760
C                 0.0165866205        0.5047522818        0.7549078140
C                -0.0363332173        1.8608484300        1.0283947050
N                -0.9493618789        2.6826665073        0.5316162156
C                -1.8311795676        2.1428203471       -0.2971325292
C                -2.7692377540        3.0591592447       -0.9870895307
C                -4.1100386977        3.1151059670       -0.6127578746
C                -4.6318428297        2.2407240959        0.4872378257
C                -4.9577759406        3.9897344529       -1.2787178448
C                -4.4824968851        4.7921636530       -2.2987755780
C                -3.1496426614        4.7298865025       -2.6631846239
C                -2.2781641589        3.8691020329       -2.0128095406
C                -0.8327852530        3.7975331922       -2.4029713970
N                -1.9305207737        0.8526954947       -0.5684786918
C                -1.0470838325        0.0062365569       -0.0306142764
N                -1.2032189281       -1.3089045785       -0.3669374275
C                -2.2293597916       -1.6475495389       -1.3309999905
C                -3.5702831687       -1.9312894977       -0.6230669335
N                -3.3874381605       -2.4111181031        0.7421939370
C                -3.4796332370       -1.4051848189        1.7882643804
C                -4.1827610063       -1.9506571556        3.0325914614
N                -5.1389767895       -2.8544211701        2.7427837408
O                -3.9324430644       -1.5661926628        4.1524244245
C                -2.1914593541       -3.2393042807        0.8077102771
C                -2.0661641437       -3.9906135180        2.1274023352
C                -0.9112014344       -2.4013632611        0.5401341148
H                 1.5573317117        1.4502805778       -1.1881974515
H                 2.2351628744        0.9315800184       -2.7377027849
H                 1.2980522890       -0.1976531021       -1.7614299634
H                 4.3205276884       -0.1508283646       -2.8578531752
H                 6.4398580214       -0.7567257140       -1.8168459014
H                 6.9059535706       -0.7380582974        1.9445788701
H                 9.0602585912       -0.0329019891        0.9861300916
H                 8.3351778060        0.1169627681       -0.6151960137
H                 7.8267673055        1.1955798904        0.6841299262
H                 7.6552125385       -2.3646360791       -0.5296616022
H                 8.3840516629       -2.5014651532        1.0705165580
H                 6.6925312234       -2.9492390639        0.8277898483
H                 4.6878890049       -0.1154732350        2.0282598531
H                 1.0914003694       -0.6353142048        2.2319924294
H                 1.3868060122       -1.1419391847        0.5481055615
H                 0.7261030837        2.3148913177        1.6476127353
H                -3.9204495967        2.1865309944        1.3088591883
H                -4.7895518957        1.2309472385        0.1068088156
H                -5.5802038502        2.6161558285        0.8643850809
H                -5.9981035696        4.0426149322       -0.9909614594
H                -5.1510763173        5.4698408117       -2.8094568326
H                -2.7793018031        5.3592401162       -3.4597470234
H                -0.6220858432        4.4659962386       -3.2341411593
H                -0.5666051358        2.7811139806       -2.6934800054
H                -0.2059368012        4.0768078294       -1.5573934604
H                -1.8825596159       -2.5335453886       -1.8723207949
H                -2.3366363504       -0.8171161722       -2.0264917797
H                -4.1753195048       -1.0257384534       -0.6043172241
H                -4.1198830995       -2.6986793732       -1.1824797661
H                -2.5174790156       -0.9828824445        2.1015922997
H                -4.0936416510       -0.5727258982        1.4361942498
H                -5.6455526257       -3.3055093341        3.4849823258
H                -5.2113899584       -3.1900581557        1.7970176028
H                -2.3040562769       -3.9800404506        0.0061573434
H                -1.1688896125       -4.6049979643        2.1094268786
H                -1.9994905458       -3.3077525653        2.9697410171
H                -2.9263058786       -4.6379215835        2.2753813057
H                -0.1379294083       -3.0518647873        0.1104971425
H                -0.5443112977       -2.0062877699        1.4861395472



