%chk=./calculation/no_transfer_pubchem_sampling_4_b3lyp/60566378.chk
%nprocshared=7
%mem=6GB
#p b3lyp/6-31g(d) opt SCF=XQC 

Gaussian input prepared by ASE

0 1
C                 6.5235470108       -0.4311972827        2.9401268413
C                 5.1172525831       -0.3834473782        2.3814916358
O                 4.1308090353       -0.2534742487        3.0609377225
N                 5.1054649730       -0.4972913474        1.0129672443
C                 4.0137461292       -0.4942536091        0.1476852947
C                 4.2657376859       -0.4261068298       -1.2238451038
C                 3.2222594442       -0.4228593117       -2.1264623824
C                 1.9218389074       -0.4786970278       -1.6607914474
F                 0.9242857656       -0.4739224122       -2.5809296961
C                 1.6344105935       -0.5551107777       -0.3020404538
C                 0.2570286529       -0.7003549902        0.2788693848
O                 0.0700322419       -1.3571730540        1.2781179695
N                -0.7107304333       -0.0202843705       -0.3995848254
C                -2.0775839707        0.0431480492       -0.1323988600
C                -2.6820168116       -0.5829873860        0.9882620151
N                -3.9542525131       -0.5203062671        1.2406886012
C                -4.7661275859        0.1674886827        0.4131180761
C                -6.1443825141        0.2260263956        0.7007443830
C                -6.9902240467        0.9159865234       -0.1227105790
C                -6.4996089211        1.5736709283       -1.2626968415
C                -5.1678782635        1.5357707354       -1.5682914639
C                -4.2683880742        0.8338545258       -0.7406320133
C                -2.8871550417        0.7520052698       -0.9916386931
C                 2.6985890970       -0.5736223321        0.5936072648
H                 7.0034723541       -1.3699517328        2.6716109099
H                 6.4782169856       -0.3499092946        4.0219263344
H                 7.1148583184        0.3924413886        2.5450083525
H                 6.0052490069       -0.5464090038        0.5549926302
H                 5.2829694572       -0.3804253043       -1.5849669172
H                 3.4020424659       -0.3793486112       -3.1888985457
H                -0.4370385162        0.4835896252       -1.2322339536
H                -2.0778979248       -1.1474880082        1.6824848470
H                -6.4994546110       -0.2864566505        1.5808225998
H                -8.0468140368        0.9611044323        0.0969829548
H                -7.1869817021        2.1120860561       -1.8988587447
H                -4.7851010388        2.0398601366       -2.4447868503
H                -2.4725486045        1.2453991024       -1.8621606765
H                 2.4823729021       -0.6513546205        1.6469549860



