%chk=./calculation/no_transfer_pubchem_sampling_4_b3lyp/63198000.chk
%nprocshared=7
%mem=6GB
#p b3lyp/6-31g(d) opt SCF=XQC 

Gaussian input prepared by ASE

0 1
C                -3.0952115537       -2.3579449424       -2.2828991179
C                -3.8814660125       -1.4437585780       -1.3503325236
C                -3.0609713323       -0.9898226139       -0.1435565759
N                -2.0715967443       -0.0114641207       -0.5437968084
C                -1.2697919862        0.5508674830        0.5116084082
C                -0.5913156199        1.8099339823       -0.0453583118
C                 0.1711237345        2.6629299008        0.9684797643
C                -0.7027703146        3.1828625585        2.1042679477
C                -0.2367738116       -0.4526534956        1.1189465301
C                 0.8140625322       -0.8142205921        0.1278099535
N                 0.3839191609       -1.4013970790       -0.9722092056
C                 1.2665699896       -1.6749999457       -1.9371532701
N                 2.5393752565       -1.4160164438       -1.9289886649
C                 3.0359643484       -0.8439950791       -0.8093922282
C                 4.4159563419       -0.5668970408       -0.7474945349
C                 4.9524381273       -0.0111012425        0.3797628302
C                 4.1385405118        0.2755652273        1.4860470518
C                 2.7944179709        0.0231616742        1.4507428327
C                 2.1995986429       -0.5259999750        0.2978067871
H                -3.7272726848       -2.6973778681       -3.1004870551
H                -2.7318114622       -3.2303254873       -1.7436474016
H                -2.2399528550       -1.8385459329       -2.7065460871
H                -4.7659896898       -1.9736381224       -0.9900050744
H                -4.2136753820       -0.5590120476       -1.8951747858
H                -3.7222301478       -0.5087503700        0.5861859107
H                -2.6194893183       -1.8803122117        0.3376912752
H                -1.4544932817       -0.4205575963       -1.2415296053
H                -1.9533463611        0.8379852146        1.3193548593
H                 0.0941258428        1.5122449321       -0.8428641216
H                -1.3759699620        2.4162479499       -0.5020673688
H                 1.0099779791        2.0989111307        1.3785119238
H                 0.5933991802        3.5163897473        0.4321958714
H                -1.0410666936        2.3728533762        2.7456472213
H                -0.1432129215        3.8863095805        2.7170944860
H                -1.5765714746        3.6936344475        1.7064686714
H                 0.1877455175       -0.0279810713        2.0247058476
H                -0.7902417068       -1.3550391942        1.3884195381
H                 0.8631433131       -2.1549795092       -2.8211289774
H                 5.0180160895       -0.8146528644       -1.6072393190
H                 6.0099038458        0.2023637522        0.4323251494
H                 4.5843043299        0.6966398277        2.3753323358
H                 2.1926386016        0.2325416392        2.3224668418



