%chk=calculation/no_transfer_pubchem_sampling_4_b3lyp/63198000_rwf.chk
%rwf=calculation/no_transfer_pubchem_sampling_4_b3lyp/63198000_rwf.rwf
%nprocshared=14
%mem=3GB
#p b3lyp/6-31g(d) 6D 10F nosymm GFInput td=(50-50,nstate=2) SCF=XQC 

Gaussian input prepared by ASE

0 1
C                -3.4194096967       -2.2114055271       -2.3755142221
C                -4.0269611249       -1.6211859587       -1.0978476622
C                -2.9889131675       -1.1741328727       -0.0610269332
N                -2.1666716267       -0.0751117538       -0.5605876970
C                -1.2968064609        0.5608191230        0.4275511037
C                -0.7818117871        1.8901155427       -0.1572613113
C                 0.0235442181        2.7941801737        0.7916272039
C                -0.7516088083        3.2729513618        2.0256527930
C                -0.1486714180       -0.3504347302        0.9870627127
C                 0.9484131993       -0.6878836281        0.0049409582
N                 0.5600428965       -1.1849347467       -1.1640820070
C                 1.5170661318       -1.5053260164       -2.0718774189
N                 2.8177318662       -1.3944362154       -1.9394145150
C                 3.2538674912       -0.8943717809       -0.7455275963
C                 4.6505882688       -0.7555848929       -0.5410624603
C                 5.1310100303       -0.2612934926        0.6500231941
C                 4.2374811668        0.1109906092        1.6831246414
C                 2.8763780946       -0.0124651638        1.5100365681
C                 2.3446054781       -0.5137499012        0.2908804448
H                -4.2017748027       -2.5769768356       -3.0503922972
H                -2.7538702926       -3.0534285978       -2.1470165645
H                -2.8369279884       -1.4642617505       -2.9264421705
H                -4.6790373864       -2.3700305926       -0.6276222013
H                -4.6579248804       -0.7604005238       -1.3523376996
H                -3.5133298577       -0.8185266447        0.8364366914
H                -2.3971481462       -2.0582978464        0.2501081809
H                -1.5725474396       -0.4225482573       -1.3125512806
H                -1.9311965074        0.7893063063        1.2949878358
H                -0.1732474213        1.6719554961       -1.0455486333
H                -1.6622003638        2.4346697329       -0.5200985855
H                 0.9458463682        2.2896618026        1.1091842452
H                 0.3528839933        3.6716807760        0.2195556169
H                -1.0278784737        2.4439785139        2.6881561136
H                -0.1549358121        3.9777280131        2.6161808725
H                -1.6783075310        3.7830208911        1.7349210138
H                 0.2639230203        0.1165555204        1.8843139468
H                -0.6023605657       -1.2944034581        1.3162407338
H                 1.1484575919       -1.9026097520       -3.0161866411
H                 5.3094370780       -1.0525578017       -1.3507169469
H                 6.2015199226       -0.1565064141        0.8042073892
H                 4.6304390694        0.4948132600        2.6203402578
H                 2.2103056741        0.2704370323        2.3175833261



