%chk=./calculation/no_transfer_pubchem_sampling_4_b3lyp/67843369.chk
%nprocshared=7
%mem=6GB
#p b3lyp/6-31g(d) opt SCF=XQC 

Gaussian input prepared by ASE

0 1
C                -0.8618994886       -3.5865918264       -1.2530233837
O                -1.0896711990       -2.2552324678       -0.8323737576
C                -1.5110242328       -2.0517074884        0.4445031038
C                -1.7810774286       -2.9997608639        1.4168609563
C                -2.1903486236       -2.6073718626        2.6892411556
C                -2.3515741823       -1.2890651870        3.0753744145
O                -2.7793859397       -1.1330801648        4.3578804859
C                -2.1293807979       -0.2277733799        5.2382317476
C                -2.1540910198       -0.2891718899        2.0839136415
C                -2.4581742111        1.1442600848        2.2684189464
O                -2.9394050382        1.6273977516        3.2856215634
C                -2.2209043571        1.9681151350        1.0985441500
C                -1.8706053811        1.4441981317       -0.0876492667
C                -1.7418678281        2.2272272674       -1.3749540588
C                -0.2570093452        2.6501386323       -1.4728759749
C                 0.5235990769        2.1570237783       -2.6965929347
C                 1.9995792723        1.8756468959       -2.3604793704
C                 2.0037078809        0.5575579180       -1.6204884132
C                 2.1616404362       -0.6484204456       -2.1955901534
C                 2.0754490588       -1.8858046605       -1.4429474099
O                 2.1173487554       -2.9707905924       -2.0082124170
C                 1.9011869706       -1.7032876663        0.0102335382
C                 1.8640850688       -2.7571805839        0.9597669309
O                 2.1172718101       -4.0769404886        0.7358199122
C                 3.3231439274       -4.4424868025        0.0835336816
C                 1.5062400710       -2.4389081950        2.2553745613
C                 1.1998260768       -1.1465444401        2.6774961750
C                 1.2824967880       -0.0834345890        1.7964470931
O                 1.0514401913        1.2366708506        2.0285057001
C                 0.8294347968        1.6649998557        3.3541878474
C                 1.6486140846       -0.4012030239        0.4713501334
O                 1.7311573448        0.6920617927       -0.3223337067
O                 0.8793382851       -1.0883153567        3.9996669004
C                 1.0242493775       -2.3940880397        4.5644068256
C                 1.3765171229       -3.3662443692        3.4279114559
C                 2.9889322744        1.9340773046       -3.5541608031
C                 2.9328778674        3.4224407762       -3.9149715024
C                 2.6790057040        4.0565590338       -2.5235411534
N                 2.6561144063        2.9412996727       -1.5773611201
C                 4.0230283709        2.4257628739       -1.4690467405
C                 4.3143660806        1.7130216071       -2.8166596009
C                -2.4133095316        1.4753476832       -2.5574686624
C                -2.4359731955        2.5490079106       -3.6500868284
C                -2.5177903082        3.8389370048       -2.7970806529
N                -2.6622563347        3.3876823951       -1.4107269784
C                -3.9846193947        2.7544410613       -1.3099412013
C                -3.8478718099        1.3867797222       -2.0236742749
O                -1.5859729103        0.1458660385       -0.2415233204
C                -1.7412026163       -0.7069219339        0.8047611946
C                -2.4415923706       -3.8415784349        3.5090858810
C                -2.1537605118       -4.9601825362        2.4937963679
O                -1.7009309720       -4.3515912078        1.2841259485
H                -0.1374411562       -4.0906385881       -0.6126992380
H                -0.4533826951       -3.5067534942       -2.2584781552
H                -1.7920139309       -4.1594353753       -1.2719782717
H                -2.3968852180        0.8070120352        5.0196107544
H                -1.0445986139       -0.3512446163        5.1911702134
H                -2.4871470680       -0.4988188522        6.2307280273
H                -2.4218016633        3.0224738081        1.1860139966
H                -0.2154775398        3.7369434235       -1.4116628209
H                 0.2528082641        2.2886969838       -0.5799699527
H                 0.4600562646        2.8820316318       -3.5051144148
H                 0.1045805454        1.2172777426       -3.0572952158
H                 2.3310119214       -0.7448473930       -3.2548043844
H                 3.2605788766       -4.2810269308       -0.9939780169
H                 3.4492659069       -5.5041189571        0.2902852043
H                 4.1703918186       -3.8846737933        0.4935956018
H                 0.7624818412        2.7499687957        3.2952563848
H                 1.6556652879        1.3811921388        4.0102286878
H                -0.1034864662        1.2664794951        3.7547416237
H                 1.8144930295       -2.3414782486        5.3211778488
H                 0.0838459254       -2.6446900916        5.0619558554
H                 0.5933657101       -4.1025638991        3.2509581692
H                 2.3051722646       -3.9055057577        3.6175298150
H                 2.8032932117        1.2602039840       -4.3854173098
H                 2.1334332274        3.6458720997       -4.6208845860
H                 3.8689929340        3.7608215018       -4.3564453797
H                 3.4540928304        4.7654605197       -2.2348862545
H                 1.7207551116        4.5740358974       -2.4818479537
H                 4.0696384520        1.7315935152       -0.6289107898
H                 4.7115886876        3.2450859903       -1.2652802766
H                 5.1546266965        2.1588780820       -3.3467278701
H                 4.5226647159        0.6537016220       -2.6724420274
H                -1.9855157326        0.5174237998       -2.8372757928
H                -1.5514470288        2.5302967052       -4.2813761812
H                -3.3071908083        2.4346071749       -4.2944859129
H                -1.6097117225        4.4354627442       -2.8864464880
H                -3.3601609638        4.4758749483       -3.0639165762
H                -4.2494239890        2.6361242586       -0.2601509289
H                -4.7320421369        3.3972012290       -1.7740819410
H                -3.9668259453        0.5572388132       -1.3268661455
H                -4.5748753187        1.2613823752       -2.8250328804
H                -3.4700098252       -3.8654190153        3.8694580322
H                -1.7863701719       -3.8924585592        4.3799962376
H                -3.0516606180       -5.5414698453        2.2594550222
H                -1.3742849823       -5.6510365790        2.8286966643



