%chk=calculation/no_transfer_pubchem_sampling_4_b3lyp/67898159_rwf.chk
%rwf=calculation/no_transfer_pubchem_sampling_4_b3lyp/67898159_rwf.rwf
%nprocshared=14
%mem=3GB
#p b3lyp/6-31g(d) 6D 10F nosymm GFInput td=(50-50,nstate=2) SCF=XQC 

Gaussian input prepared by ASE

0 1
C                11.5988005030       -0.3124932695       -6.1278218589
C                11.7545193659        0.6004013429       -5.1682718527
C                11.5229921344        0.3696441592       -3.6995347529
C                10.4225038479        1.2821040686       -3.1220420737
C                10.2489316512        1.1777633244       -1.5965707140
C                 9.8125094627       -0.1955553779       -1.0547585112
C                 8.4367457754       -0.6677210015       -1.5535673644
C                 7.9453206792       -1.9993976051       -0.9397947769
C                 7.0539021816       -1.8780134781        0.3097283759
C                 7.7241974395       -1.2787061629        1.5527852962
C                 6.8550083857       -1.3205944439        2.8059382087
O                 5.7020113140       -0.5098650132        2.6066736346
C                 4.8929624329       -0.3349870924        3.7734758268
C                 5.4579066475        0.7804101768        4.6623159322
C                 3.4650560720        0.0039672518        3.3277064380
C                 2.6250362255       -1.1209867967        2.6532830271
C                 2.6283952824       -2.2986393449        3.5452322575
N                 2.6358162243       -3.2201907181        4.2535325808
C                 3.1800911600       -1.5282117068        1.2403010559
C                 2.0722542143       -1.8165556637        0.2069331415
C                 0.8686643307       -2.5425870916        0.8203575769
C                 0.1975775666       -1.7256969778        1.9711443801
C                -1.1477847674       -1.1187175887        1.6043396580
C                -2.2611709851       -1.3093372992        2.4322448176
C                -3.4983819802       -0.7434243416        2.1300286801
C                -3.6784367702        0.0366944966        0.9765886639
C                -4.9944985347        0.6361454236        0.6473092339
C                -5.0924075936        1.9091241050        0.0538148393
C                -6.3220562410        2.4724348227       -0.2553547214
C                -7.5126237692        1.7816143999        0.0202583167
O                -8.6607461338        2.4413777195       -0.3083703854
C                -9.9502837279        1.8413864452       -0.0844560676
C               -10.9483350488        3.0053190770        0.0864164110
C               -10.7791206320        4.2357009540       -0.8256691591
C               -10.9809276217        4.0194299036       -2.3299827864
C               -10.2804524505        0.8310549655       -1.1987694644
C               -11.4580222399       -0.0959382907       -0.8640959486
C               -11.7368875711       -1.1298699740       -1.9636411124
C               -12.9072705516       -2.0610569963       -1.6320308029
C                -7.4383036449        0.5111478990        0.6062553035
C                -6.1929465367       -0.0408137403        0.9113931678
C                -2.5615623360        0.2257078584        0.1439896072
C                -1.3257060277       -0.3358265385        0.4534979638
C                 1.1566869940       -0.6310157074        2.5042299494
H                11.2915679897       -1.3320490589       -5.9017606273
H                11.7746694152       -0.0806420425       -7.1750217248
H                12.0617109693        1.6110458147       -5.4454889860
H                11.2716947999       -0.6851079819       -3.5324841785
H                12.4576561121        0.5601042932       -3.1483068051
H                10.6635820660        2.3250528273       -3.3714890232
H                 9.4750038002        1.0645938865       -3.6314413351
H                11.1974968685        1.4585247102       -1.1163155067
H                 9.5138953942        1.9307805723       -1.2778264870
H                 9.8108199904       -0.1429941541        0.0408486569
H                10.5634470456       -0.9556925471       -1.3126962722
H                 7.6894805912        0.1184066350       -1.3667799583
H                 8.4815419730       -0.7805694265       -2.6443107611
H                 8.8119937797       -2.6380208503       -0.7124643382
H                 7.3667890074       -2.5439657346       -1.6975328297
H                 6.1682433351       -1.2804977074        0.0604811017
H                 6.6828027383       -2.8814899517        0.5659195858
H                 8.0076719070       -0.2349037478        1.3710187662
H                 8.6517421903       -1.8261716798        1.7736439006
H                 6.5486514786       -2.3564240480        3.0306455630
H                 7.4380861248       -0.9587252688        3.6666584287
H                 4.8754157636       -1.2767162888        4.3438707222
H                 6.4948206835        0.5742617923        4.9459926162
H                 5.4357969219        1.7387931909        4.1312082316
H                 4.8749612304        0.8789294633        5.5849291470
H                 3.5082806712        0.8512041739        2.6315309040
H                 2.9163925793        0.3468835858        4.2136481956
H                 3.8301994060       -2.4015359870        1.3475372124
H                 3.8221778475       -0.7198262244        0.8824120633
H                 1.7406713836       -0.8748230340       -0.2497693807
H                 2.4938976640       -2.4130633970       -0.6109983812
H                 1.2066910932       -3.5064819950        1.2208135470
H                 0.1292161391       -2.7720354065        0.0457060794
H                 0.0165403367       -2.4173181573        2.8018210088
H                -2.1563759846       -1.9067031312        3.3356407044
H                -4.3319100509       -0.8911642344        2.8113697091
H                -4.1880881360        2.4781749716       -0.1436704668
H                -6.3899511296        3.4604239824       -0.7004157106
H                -9.9195105565        1.2985614094        0.8707292897
H               -11.9636765189        2.6008205922       -0.0196518226
H               -10.8696054333        3.3581945990        1.1226013148
H                -9.7861863225        4.6646074044       -0.6537312174
H               -11.5023013842        4.9860551999       -0.4784209206
H               -10.1751059784        3.4195127691       -2.7642265963
H               -10.9904234940        4.9811729695       -2.8563100191
H               -11.9330559403        3.5173991902       -2.5443020076
H               -10.4803192992        1.3627969298       -2.1345986659
H                -9.3880151099        0.2178625691       -1.3772468186
H               -11.2543886807       -0.6216833008        0.0814116515
H               -12.3690394531        0.4940869747       -0.6913200708
H               -10.8303571331       -1.7265628236       -2.1370648598
H               -11.9409257026       -0.6061594549       -2.9081356547
H               -13.0807344820       -2.7858518984       -2.4354381356
H               -12.7172066642       -2.6248979675       -0.7104071999
H               -13.8360819039       -1.4954497710       -1.4876072863
H                -8.3326906570       -0.0633887028        0.8170239624
H                -6.1586690893       -1.0386196541        1.3402557085
H                -2.6701409922        0.7993080092       -0.7725964943
H                -0.4911478007       -0.1711218183       -0.2240104275
H                 0.7851295156       -0.2598141099        3.4659673284
H                 1.1672033585        0.2276858674        1.8216505782



