%chk=./calculation/no_transfer_pubchem_sampling_4_b3lyp/67898159.chk
%nprocshared=7
%mem=6GB
#p b3lyp/6-31g(d) opt SCF=XQC 

Gaussian input prepared by ASE

0 1
C                10.0226193271        0.7435925651       -6.4469189177
C                10.5010867472        1.3732366484       -5.3907014103
C                10.5605893138        0.7962405260       -4.0129842925
C                 9.7182877649        1.6229717342       -3.0364598802
C                 9.8650748320        1.1757947002       -1.5814720966
C                 9.4283075320       -0.2627096726       -1.2976034484
C                 7.9549910779       -0.5200128374       -1.6128411893
C                 7.4704803562       -1.8960563420       -1.1333986157
C                 6.7042471489       -1.8615961147        0.1895705867
C                 7.5478067003       -1.4183318784        1.3815427854
C                 6.7927333614       -1.5453246464        2.7012736474
O                 5.6970837508       -0.6582126789        2.6977053513
C                 4.9395270432       -0.6429938355        3.8965192871
C                 5.5686249944        0.2888203039        4.9369774209
C                 3.5208015943       -0.1681092888        3.5482734811
C                 2.5818331365       -1.2833099992        3.0475112175
C                 2.4740394279       -2.2763707384        4.0961022716
N                 2.4008170270       -3.0710019428        4.9161115850
C                 3.1242893876       -1.9694456308        1.7712060390
C                 2.0259558533       -2.2437137274        0.7453291906
C                 0.7791566064       -2.8017378594        1.4229718672
C                 0.1728758034       -1.8082642703        2.4370658795
C                -1.1086168516       -1.1783831976        1.9525908578
C                -2.2250742205       -1.1410421377        2.7783166210
C                -3.4025256953       -0.5518652093        2.3606921607
C                -3.5008276416        0.0270601061        1.0979946349
C                -4.7500061983        0.6552347987        0.6493312251
C                -4.7353378273        1.8430794084       -0.0820863601
C                -5.9074369878        2.4316668531       -0.4983878322
C                -7.1444681037        1.8503303090       -0.2063616989
O                -8.2250180410        2.5318264262       -0.6638386109
C                -9.5343553054        2.0314634204       -0.4475517228
C               -10.5191968964        3.2090235548       -0.5998282046
C               -10.0664480653        4.3204100457       -1.5502673117
C                -9.9181118840        3.8842948569       -3.0018439200
C                -9.8479955818        0.8629316684       -1.3987567987
C               -10.9565441101       -0.0403532278       -0.8647121198
C               -11.2728400708       -1.1797506196       -1.8307370035
C               -12.3745471278       -2.0861120091       -1.2955767117
C                -7.1674210842        0.6613478625        0.5167035600
C                -5.9838343591        0.0837949333        0.9390988214
C                -2.3800305592       -0.0068994339        0.2715869752
C                -1.2060003138       -0.5992094736        0.6927278257
C                 1.1804256951       -0.7030090590        2.7920233683
H                 9.6437036730       -0.2636985411       -6.3820822351
H                 9.9923299886        1.1998482629       -7.4218888457
H                10.8733518854        2.3859105615       -5.4839662820
H                10.2059773764       -0.2346120439       -4.0354560747
H                11.5992607389        0.7956478098       -3.6684132706
H                10.0284713173        2.6690800901       -3.1048928226
H                 8.6707021251        1.5750141446       -3.3378084621
H                10.9121199862        1.2839577262       -1.2858294501
H                 9.2758545779        1.8500271388       -0.9542053825
H                 9.6138761177       -0.4679545474       -0.2420462334
H                10.0449839397       -0.9552758748       -1.8736319744
H                 7.3442489816        0.2594806457       -1.1529456288
H                 7.8131079796       -0.4500839373       -2.6923976264
H                 8.3249516246       -2.5698038114       -1.0385701415
H                 6.8040636686       -2.3234261951       -1.8860749707
H                 5.8533752299       -1.1858554599        0.0932515568
H                 6.3124456375       -2.8622817778        0.3902560546
H                 7.8411188432       -0.3757495846        1.2601773290
H                 8.4487850951       -2.0319976078        1.4458999369
H                 6.4328519813       -2.5782685537        2.8386936733
H                 7.4740484910       -1.3137933755        3.5331710881
H                 4.8952974089       -1.6630330395        4.3118534531
H                 6.5955580869       -0.0031182597        5.1418883978
H                 5.5675098354        1.3101370808        4.5637367231
H                 5.0074568901        0.2439311402        5.8661075338
H                 3.6059698942        0.5980820841        2.7755740238
H                 3.0772681319        0.2869775043        4.4363330525
H                 3.6016894445       -2.9130338800        2.0474991240
H                 3.8915245206       -1.3334984820        1.3315245032
H                 1.7819760067       -1.3267814243        0.2070193335
H                 2.3967050098       -2.9612088797        0.0104663377
H                 1.0553681498       -3.7206416319        1.9450379150
H                 0.0303758171       -3.0631482196        0.6730254813
H                -0.0539658019       -2.3571217844        3.3573834289
H                -2.1705353407       -1.5809366993        3.7644977609
H                -4.2514734215       -0.5225417669        3.0280739107
H                -3.7928120026        2.3207190599       -0.3057598579
H                -5.8983441086        3.3557555843       -1.0554183175
H                -9.6105135778        1.6626806619        0.5868905689
H               -11.4790672153        2.8122457466       -0.9336858007
H               -10.6714319359        3.6609920811        0.3827678241
H                -9.1141624157        4.7177783886       -1.1989561496
H               -10.8065055659        5.1227953741       -1.4923234593
H                -9.1017457353        3.1752232141       -3.1042769853
H                -9.6976697732        4.7467208261       -3.6276268285
H               -10.8370173438        3.4274165217       -3.3651975678
H               -10.1347389507        1.2524646127       -2.3746092099
H                -8.9385976402        0.2721385672       -1.5354183643
H               -10.6548370455       -0.4612764026        0.0981381264
H               -11.8613349186        0.5476485390       -0.6942557301
H               -10.3687459368       -1.7685447296       -2.0015103299
H               -11.5813292677       -0.7619939942       -2.7916744036
H               -12.5848588086       -2.8888929182       -1.9982027255
H               -12.0776334515       -2.5293056463       -0.3474689845
H               -13.2902694142       -1.5207351527       -1.1361844882
H                -8.0975437208        0.1712068137        0.7576628999
H                -6.0234585585       -0.8473033981        1.4857459994
H                -2.4374845548        0.4187080416       -0.7198583782
H                -0.3586323854       -0.6165142007        0.0235201428
H                 0.8294766979       -0.1761064550        3.6827237343
H                 1.2438851828        0.0266441626        1.9833555525



