%chk=calculation/no_transfer_pubchem_sampling_4_b3lyp/68333253_rwf.chk
%rwf=calculation/no_transfer_pubchem_sampling_4_b3lyp/68333253_rwf.rwf
%nprocshared=14
%mem=3GB
#p b3lyp/6-31g(d) 6D 10F nosymm GFInput td=(50-50,nstate=2) SCF=XQC 

Gaussian input prepared by ASE

0 1
C                -7.4733523551        0.9035435465        1.8693815019
C                -6.9134670351       -0.3330273995        1.1327888236
C                -7.6530822915       -0.5818046344       -0.1590342155
C                -7.1397503187       -0.2086616062       -1.3393827751
C                -5.8142418234        0.3913843433       -1.4471353604
C                -5.3377707633        0.9330581680       -2.6430127467
C                -4.0605293953        1.4857592354       -2.7224431551
C                -3.2509901537        1.4808504204       -1.5894053870
C                -3.6851704292        0.9364244640       -0.3709493632
C                -2.7131984734        0.9485613311        0.7968957510
N                -1.6838171407       -0.1055277650        0.7323324170
C                -2.1639583484       -1.4810623087        0.9090321562
C                -1.0324868785       -2.4739295979        1.1506055071
C                 0.0620905750       -2.2582965441        0.1089172029
C                 0.6613604315       -0.8415887309        0.2065148338
C                 1.5939415558       -0.5570170889       -1.0040940297
C                 3.0602890891       -0.8900281494       -0.7229726185
N                 3.5680969371       -0.0503174106        0.3664553040
C                 4.8800704736        0.3430491245        0.3730621027
C                 5.3595526361        1.3304212373        1.3174056460
N                 6.6055604876        1.7211322289        1.3608210483
C                 7.4728839105        1.1671028305        0.4567403734
C                 8.8334162499        1.5537455374        0.4629736676
C                 9.7102282054        1.0124623033       -0.4539626288
C                 9.2488084017        0.0704908614       -1.4053069245
C                 7.9266468822       -0.3217609099       -1.4318217477
C                 7.0040618236        0.2156980032       -0.4979060427
N                 5.7045748330       -0.1892187799       -0.5214891848
C                 2.6185315447        0.3434398092        1.4102960562
C                 1.4977477321       -0.6938162249        1.5214089514
C                -0.4392594391        0.2446381182        0.2676753981
O                -0.1632786440        1.4138940405       -0.0115431597
C                -4.9849828104        0.3892824490       -0.2926975432
N                -5.4730986461       -0.2313310862        0.8562171219
H                -8.5412299061        0.7760641436        2.0840189390
H                -7.3513730247        1.8020876159        1.2555761989
H                -6.9546394518        1.0586471494        2.8244396844
H                -7.0420957275       -1.2027207812        1.7930657731
H                -8.6472918480       -1.0149186462       -0.0872438908
H                -7.7079662512       -0.3455041116       -2.2572868573
H                -5.9869473727        0.9219729285       -3.5160078378
H                -3.7006685075        1.9140920299       -3.6530396653
H                -2.2509060404        1.9042192143       -1.6301192215
H                -3.2239219068        0.8485158590        1.7631938093
H                -2.1732049271        1.8951231946        0.8133871858
H                -2.8609688657       -1.4850111183        1.7561006971
H                -2.7457691561       -1.7789341581        0.0248387689
H                -1.4376819301       -3.4907088844        1.0917153578
H                -0.6294453625       -2.3491873730        2.1631996016
H                 0.8619751152       -3.0023593749        0.2140802092
H                -0.3675289836       -2.4000022693       -0.8928866268
H                 1.5189081509        0.5021996210       -1.2635169093
H                 1.2594057956       -1.1326202402       -1.8757069767
H                 3.1907094684       -1.9575705750       -0.4838748016
H                 3.6732601977       -0.6980063139       -1.6052890958
H                 4.6769561427        1.8040385251        2.0185688360
H                 9.1518561241        2.2814009968        1.2037451401
H                10.7558582635        1.3072217772       -0.4516611648
H                 9.9488704756       -0.3479390102       -2.1240533474
H                 7.5586906180       -1.0440409754       -2.1544325131
H                 2.1862939540        1.3335519791        1.2097198057
H                 3.1393188656        0.3920784354        2.3720816824
H                 0.8548514901       -0.4217265260        2.3653359190
H                 1.9446643675       -1.6660993604        1.7666860761
H                -4.9254085903       -0.0714075673        1.6906172436



