%chk=./calculation/no_transfer_pubchem_sampling_4_b3lyp/68419098.chk
%nprocshared=7
%mem=6GB
#p b3lyp/6-31g(d) opt SCF=XQC 

Gaussian input prepared by ASE

0 1
C                 4.3688616241       -2.0629551398        0.7475865324
C                 4.8662452857       -1.1111059914       -0.3416484030
C                 3.8635950130       -0.0207242797       -0.5796715413
C                 3.7895199469        1.0924666910        0.2551268809
C                 2.8212514041        2.0468118472        0.0109507688
C                 1.9475940921        1.8778219662       -1.0594741445
C                 0.8372744215        2.8670972021       -1.3128994036
N                -0.2078537429        2.7846596007       -0.3106064791
C                -1.0298672457        1.6742779756       -0.1922675626
C                -1.3877478960        0.8743265765       -1.2755808582
C                -2.2733154767       -0.1732344427       -1.1109641248
C                -2.8378323228       -0.4657101962        0.1224053418
C                -3.8014577132       -1.6163210574        0.2784884730
C                -3.2525351981       -2.6605282162        1.2531882525
C                -5.1750939745       -1.1198791652        0.7348147575
C                -2.4842079682        0.3372749817        1.2004918087
C                -1.5972907588        1.3817338644        1.0500071451
C                 2.1110145152        0.7327876344       -1.8289281420
N                 3.0349694552       -0.1817498559       -1.6012031724
H                 4.2212182868       -1.5301294379        1.6847296569
H                 5.0900902881       -2.8600314292        0.9113389846
H                 3.4211914168       -2.5055079970        0.4507933021
H                 5.0049075986       -1.6638158583       -1.2708069983
H                 5.8212314990       -0.6761654829       -0.0394415622
H                 4.4830171452        1.2053013743        1.0752203168
H                 2.7464250946        2.9238607275        0.6408478000
H                 0.3992299201        2.7009267410       -2.2987059639
H                 1.2325941127        3.8875849336       -1.2847278623
H                 0.0837183583        3.1435251648        0.5892053785
H                -0.9838882764        1.0680094488       -2.2564328643
H                -2.5300542905       -0.7784266646       -1.9695306096
H                -3.9205043886       -2.0945055002       -0.7004722946
H                -3.9245877301       -3.5143736879        1.3110572416
H                -3.1465804280       -2.2396410380        2.2500385044
H                -2.2761940624       -3.0090125722        0.9231712136
H                -5.8791847229       -1.9479908488        0.7852830885
H                -5.5600296673       -0.3790031304        0.0373423953
H                -5.1125035883       -0.6626016016        1.7192028273
H                -2.9005713172        0.1446296754        2.1784624022
H                -1.3355623872        1.9906743853        1.9055582323
H                 1.4729146776        0.5396378031       -2.6819463182



