%chk=calculation/no_transfer_pubchem_sampling_4_b3lyp/68419098_rwf.chk
%rwf=calculation/no_transfer_pubchem_sampling_4_b3lyp/68419098_rwf.rwf
%nprocshared=14
%mem=3GB
#p b3lyp/6-31g(d) 6D 10F nosymm GFInput td=(50-50,nstate=2) SCF=XQC 

Gaussian input prepared by ASE

0 1
C                 5.2663281878       -2.1885839651       -0.7293957242
C                 5.4249264966       -0.7727207064       -0.1509150022
C                 4.2116055287        0.0943872249       -0.4049731428
C                 3.3534326083        0.4931147735        0.6260447862
C                 2.2413369485        1.2785607686        0.3285429753
C                 2.0009423679        1.6527760803       -0.9933322846
C                 0.8402321474        2.5526062145       -1.4094441360
N                -0.2734704666        2.6581217777       -0.4916560862
C                -1.1440318963        1.6083946173       -0.2009933237
C                -1.1666678103        0.4137797877       -0.9386388675
C                -2.0983336396       -0.5809923386       -0.6378237416
C                -3.0283742077       -0.4458156015        0.3969782985
C                -4.0305198126       -1.5492683975        0.7064598344
C                -3.8337799022       -2.1300454690        2.1198008522
C                -5.4845915465       -1.0829824108        0.5018091796
C                -2.9895650754        0.7488035513        1.1339710527
C                -2.0744031756        1.7536122058        0.8468362794
C                 2.9123756031        1.1924649894       -1.9520208411
N                 3.9842136184        0.4440790412       -1.6841817558
H                 4.4330261923       -2.7189258132       -0.2540987850
H                 6.1771110738       -2.7778120823       -0.5743876999
H                 5.0661117939       -2.1362021431       -1.8040057943
H                 6.2960010972       -0.2932266383       -0.6144957226
H                 5.6203171865       -0.8266792817        0.9269274755
H                 3.5544620991        0.1885104046        1.6495440592
H                 1.5592067150        1.5873694628        1.1159740017
H                 0.4651307677        2.2253286747       -2.3880602449
H                 1.2149240878        3.5722774922       -1.5662244694
H                -0.1781855580        3.3500972808        0.2378097064
H                -0.4536824944        0.2478828723       -1.7392338813
H                -2.0900297180       -1.4953350041       -1.2281250048
H                -3.8438971738       -2.3617299024       -0.0096885517
H                -4.5278242062       -2.9600102629        2.3005857765
H                -4.0166886518       -1.3710678487        2.8902564640
H                -2.8123991832       -2.5022405927        2.2554030372
H                -6.1866826911       -1.9079937574        0.6740707016
H                -5.6397316442       -0.7080572014       -0.5157277876
H                -5.7445071657       -0.2755401832        1.1971647959
H                -3.6902859756        0.9036176535        1.9514348756
H                -2.0794221044        2.6723609690        1.4310968358
H                 2.7653905791        1.4470787587       -3.0032851409



