%chk=./calculation/no_transfer_pubchem_sampling_4_b3lyp/69709703.chk
%nprocshared=7
%mem=6GB
#p b3lyp/6-31g(d) opt SCF=XQC 

Gaussian input prepared by ASE

0 1
C                -6.1915913618       -0.1691823768       -0.0158651795
C                -4.9569524189        0.6550948230       -0.2268257215
C                -4.6079312721        1.6508851644        0.6764517091
C                -3.4756967424        2.4188605732        0.4726776372
C                -2.6734293640        2.1996589199       -0.6316116779
C                -3.0040350453        1.2091588394       -1.5467542606
C                -2.0770194495        0.9022150032       -2.6889606712
C                -0.8981724555        0.0956125905       -2.1513270902
O                 0.2633765086        0.3992386941       -2.3251913295
N                -1.2755302094       -1.0179256799       -1.4818383086
C                -0.3142373794       -1.7211679104       -0.6542637836
C                 0.2021312427       -0.7300339751        0.4152598565
O                -0.5626121210       -0.0073059201        1.0191443180
N                 1.5263511373       -0.7754920327        0.6266350493
C                 2.2053319729        0.1699937256        1.4889159470
C                 3.2354065471        0.9746487373        0.7405263572
C                 2.9888397825        1.4204359720       -0.5516773382
C                 3.9388107367        2.1662491903       -1.2189683070
C                 5.1549319625        2.4888752349       -0.6200256599
N                 6.1192445205        3.1796218503       -1.3363615408
C                 5.4141439103        2.0379158238        0.6827043755
C                 6.7198813380        2.3577029140        1.3511602134
C                 4.4499650715        1.2895846530        1.3352668091
C                -0.9593367452       -2.8893308798        0.0367502939
C                -0.4434048872       -4.1713267831       -0.0954734701
C                -1.0471484687       -5.2369025370        0.5492906204
C                -2.1695877927       -5.0296126152        1.3324056159
C                -2.6822667637       -3.7509010414        1.4761607104
C                -2.0810297311       -2.6842407823        0.8335232922
C                -4.1454523642        0.4456270877       -1.3334576543
H                -7.0665336740        0.3697589450       -0.3810773184
H                -6.1284564020       -1.1138728085       -0.5515891775
H                -6.3426836130       -0.3730718727        1.0420823660
H                -5.2261022485        1.8204795510        1.5463657124
H                -3.2103908698        3.1852537823        1.1853240545
H                -1.7788589954        2.7852171611       -0.7801054298
H                -2.5834973126        0.3158191963       -3.4581453438
H                -1.6820013258        1.8139476912       -3.1377383894
H                -2.2435018705       -1.0957639841       -1.2042906262
H                 0.5132469075       -2.0461795263       -1.2945057305
H                 2.1123887870       -1.3138948399        0.0079636857
H                 2.6770105407       -0.3676691880        2.3196717714
H                 1.4253509596        0.8222458294        1.8968042113
H                 2.0555567811        1.1876259957       -1.0422462327
H                 3.7406800061        2.5086371356       -2.2245842459
H                 5.7754312256        3.6647948631       -2.1504488461
H                 6.7759536176        3.7156372639       -0.7926349203
H                 6.7730508557        1.8832561194        2.3274909231
H                 7.5556532478        2.0046493498        0.7475009577
H                 6.8328514767        3.4344321296        1.4916323242
H                 4.6501336184        0.9434873930        2.3405155811
H                 0.4306017772       -4.3380446809       -0.7089188800
H                -0.6406769194       -6.2313568159        0.4379223720
H                -2.6411291162       -5.8620290279        1.8333892796
H                -3.5518258845       -3.5833015857        2.0942595612
H                -2.4615589400       -1.6823557269        0.9713401686
H                -4.4136697876       -0.3256566123       -2.0454096406



