%chk=calculation/no_transfer_pubchem_sampling_4_b3lyp/69709703_rwf.chk
%rwf=calculation/no_transfer_pubchem_sampling_4_b3lyp/69709703_rwf.rwf
%nprocshared=14
%mem=3GB
#p b3lyp/6-31g(d) 6D 10F nosymm GFInput td=(50-50,nstate=2) SCF=XQC 

Gaussian input prepared by ASE

0 1
C                -7.2579887892        0.3781235135       -1.7772776171
C                -5.9382754824        0.7095204819       -1.1191085048
C                -5.8707856407        1.0235598364        0.2434008053
C                -4.6514917470        1.3520750934        0.8375653975
C                -3.4799788235        1.3782060128        0.0814896912
C                -3.5208910302        1.0672907086       -1.2875698166
C                -2.2635731068        1.1197919261       -2.1314905904
C                -1.0559150246        0.3052250699       -1.6499291992
O                 0.0856247954        0.5945789168       -1.9985470217
N                -1.3209710489       -0.7831805777       -0.8705996334
C                -0.2232030849       -1.4670517447       -0.1996135214
C                 0.4706682738       -0.4875092386        0.7844536982
O                -0.1809211232        0.3084994269        1.4548509014
N                 1.8198721408       -0.6224228666        0.8639847792
C                 2.6628533897        0.3081859805        1.6105164050
C                 3.6779646396        1.0075529150        0.7282112235
C                 3.3249107670        1.5172775888       -0.5280714300
C                 4.2658126325        2.1862637775       -1.3041104871
C                 5.5828434985        2.3670400977       -0.8540078725
N                 6.5350426073        2.9882741615       -1.6747590500
C                 5.9577101158        1.8515523796        0.4061756718
C                 7.3746359950        2.0074451203        0.9011183750
C                 4.9949575102        1.1825722929        1.1652351222
C                -0.7310312060       -2.7070417800        0.5197722642
C                -0.4552083034       -3.9799717361        0.0075466909
C                -0.9373879265       -5.1229442447        0.6468704603
C                -1.7050323399       -5.0035615487        1.8063215317
C                -1.9847325940       -3.7369645234        2.3235766628
C                -1.5000354900       -2.5941265977        1.6871248069
C                -4.7517022647        0.7309813633       -1.8634764875
H                -7.7621182211        1.2853304941       -2.1366649691
H                -7.1217430774       -0.2808060830       -2.6414226008
H                -7.9414869048       -0.1164918339       -1.0787521757
H                -6.7778429922        1.0052688282        0.8436619775
H                -4.6120161377        1.5867934852        1.8981113160
H                -2.5303797894        1.6103208486        0.5575807227
H                -2.4827895377        0.7929063027       -3.1560033217
H                -1.8940882651        2.1482168044       -2.2151853303
H                -2.2386204907       -0.8594311083       -0.4518572423
H                 0.4952263421       -1.7630055940       -0.9707970213
H                 2.2802576562       -1.1958244679        0.1693719336
H                 3.1769278904       -0.2236846334        2.4217871479
H                 1.9708659118        1.0175670971        2.0761092987
H                 2.3148163729        1.3868218440       -0.9092560310
H                 3.9791673286        2.5754342458       -2.2792309989
H                 6.1347388522        3.5564370256       -2.4119530351
H                 7.2583053619        3.4968670305       -1.1808025698
H                 7.5158730376        1.4966820306        1.8582806717
H                 8.0986428672        1.5935448031        0.1866451470
H                 7.6467649867        3.0628318506        1.0562249872
H                 5.2894005355        0.7822672537        2.1346297115
H                 0.1357460729       -4.0765719994       -0.9003778224
H                -0.7141931735       -6.1048339520        0.2380024537
H                -2.0815858525       -5.8925609930        2.3052133887
H                -2.5773454620       -3.6371141597        3.2290837634
H                -1.6973867064       -1.6089999761        2.0998319156
H                -4.7889049451        0.4827960518       -2.9230455724



