%chk=./calculation/no_transfer_pubchem_sampling_4_b3lyp/70243090.chk
%nprocshared=7
%mem=6GB
#p b3lyp/6-31g(d) opt SCF=XQC 

Gaussian input prepared by ASE

0 1
C                -2.6639212376        2.7738981136        1.4970875792
C                -1.9858482256        1.9861947400        0.3832180667
C                -2.9960042479        1.1778953176       -0.4265290864
C                -2.3507165921        0.4649533716       -1.6253268863
C                -1.3643179374       -0.5595990203       -1.1762418412
C                -0.0007819227       -0.3914121876       -1.1449135525
C                 0.7751799352        0.7595458770       -1.5940536655
O                 0.2783332747        1.7246700546       -2.1373617125
C                 2.2647788947        0.7102267620       -1.3077229921
C                 2.5176565437        1.1194310272        0.1538698012
N                 3.9108754043        1.0238892176        0.4809692498
C                 4.5829746916       -0.1189877379        0.8163799664
C                 5.8880019405        0.2444974783        0.9760323340
N                 6.0311444518        1.5752558806        0.7413385113
C                 4.8395025834        2.0095219414        0.4440767105
S                 0.8288305964       -1.7971123865       -0.4877957270
C                -0.6755032697       -2.6205759524       -0.2492046392
C                -0.8465291969       -3.8931279716        0.2774675178
C                -2.1281949958       -4.3879666618        0.3856541365
C                -3.2242970011       -3.6284367148       -0.0284034411
C                -3.0550985616       -2.3674705779       -0.5504375060
C                -1.7664919130       -1.8340513466       -0.6671521768
H                -1.9301700334        3.3364141989        2.0693567092
H                -3.1876035481        2.1034104891        2.1757709328
H                -3.3859267863        3.4745852294        1.0837054365
H                -1.4583738296        2.6703286659       -0.2836846689
H                -1.2446725877        1.3112510504        0.8187758918
H                -3.4774083342        0.4447607149        0.2256635077
H                -3.7687628718        1.8496900193       -0.8057193219
H                -3.1308414943       -0.0287339545       -2.2093914953
H                -1.8548809935        1.2022234593       -2.2540934002
H                 2.7694873440        1.4154259687       -1.9702859068
H                 2.6623827515       -0.2913356201       -1.4782538009
H                 1.9528264727        0.4651035014        0.8255678323
H                 2.1877643675        2.1507597685        0.3067471503
H                 4.0828782840       -1.0606629747        0.9159455702
H                 6.7295614726       -0.3611241134        1.2457031016
H                 4.5983688035        3.0264038041        0.2053558059
H                 0.0078818211       -4.4731823711        0.5895942602
H                -2.2870681592       -5.3752338936        0.7918491015
H                -4.2174494315       -4.0416669282        0.0630815485
H                -3.9075684624       -1.7896522384       -0.8725619017



