%chk=calculation/no_transfer_pubchem_sampling_4_b3lyp/70340479_rwf.chk
%rwf=calculation/no_transfer_pubchem_sampling_4_b3lyp/70340479_rwf.rwf
%nprocshared=14
%mem=3GB
#p b3lyp/6-31g(d) 6D 10F nosymm GFInput td=(50-50,nstate=2) SCF=XQC 

Gaussian input prepared by ASE

0 1
C                -6.3113632109       -4.4176430424        0.8800085868
C                -5.8843104490       -3.2837577439        0.3234983728
C                -5.4585030569       -2.0668084022        1.1068120121
N                -4.0111547397       -1.8160091447        1.0976384685
C                -3.6716112326       -0.7184326106        2.0089449660
C                -2.1586028486       -0.5084405438        2.0851663811
C                -1.5322692842       -0.1792938017        0.6971507891
C                -1.9863715071        1.2489435711        0.2860417827
C                -1.6480354507        2.3142736413        1.1517634373
C                -2.0158318055        3.6236651581        0.8702792261
C                -2.7359652769        3.9448114545       -0.2843309551
C                -3.0755426159        2.9084866919       -1.1531543409
O                -3.7713859729        3.0659979353       -2.3202826395
C                -4.1859778454        4.3736116280       -2.6787581151
C                -2.7037159087        1.5845239211       -0.8637665276
C                 0.0325972242       -0.2095072671        0.7990044415
C                 0.7631635463       -0.6300442384       -0.5082441826
N                 2.0834471933        0.0203067882       -0.6315932137
C                 2.1098498137        1.4274592998       -1.0191606002
C                 3.1589607303       -0.6391203296       -0.0765120137
O                 3.0245468385       -1.6724581966        0.5787782398
C                 4.5442270145       -0.0959980333       -0.3247995411
C                 4.9724751033        0.3653367868       -1.6007004523
C                 6.2732196011        0.7639045346       -1.8031233099
C                 7.2198937201        0.7388289317       -0.7441933131
C                 8.5664869941        1.1578713818       -0.9139287363
C                 9.4560734787        1.1113562099        0.1358545409
C                 9.0406498020        0.6408862229        1.4066494307
C                 7.7429538074        0.2269680130        1.6032970365
C                 6.7983913422        0.2641495082        0.5411691224
C                 5.4566377131       -0.1604435451        0.7104020871
C                -0.0959460725       -0.4037825511       -1.7612359261
C                -1.4015032188       -1.2224764215       -1.6881576248
C                -1.9640082750       -1.3597863904       -0.2479154356
O                -1.2996442598       -2.4890918004        0.3681801666
C                -1.7397603292       -3.7966097033        0.0514792340
C                -3.4928002838       -1.5674946947       -0.2464797586
H                -6.3610996509       -4.5399104919        1.9602454321
H                -6.6299147558       -5.2668608754        0.2808828705
H                -5.8638275499       -3.2054655531       -0.7633075067
H                -6.0158258804       -1.1837627629        0.7262122091
H                -5.7559036129       -2.1989212683        2.1538525554
H                -4.1739085861        0.2241146246        1.7119223038
H                -4.0504683641       -0.9795856898        3.0049136694
H                -1.6974894923       -1.4252042942        2.4585282603
H                -1.9435921576        0.2892915408        2.8032995249
H                -1.0878120628        2.1183758581        2.0602217670
H                -1.7395193835        4.4168951324        1.5603478228
H                -3.0141190522        4.9726881515       -0.4856837884
H                -4.7167985463        4.2709075858       -3.6271377212
H                -3.3289960937        5.0469984550       -2.8146469838
H                -4.8639739265        4.8029586913       -1.9289879043
H                -3.0028513623        0.8463440014       -1.5935254989
H                 0.3853680381        0.7781112669        1.1081280435
H                 0.3349327728       -0.9088309933        1.5810643896
H                 0.9777178649       -1.6948843901       -0.4304812756
H                 1.3001335805        1.9684557597       -0.5146044710
H                 3.0533073633        1.8854413942       -0.7238554973
H                 1.9809829994        1.5615256181       -2.1004060135
H                 4.2680149584        0.3778354985       -2.4270858783
H                 6.5952084751        1.1000540455       -2.7860955708
H                 8.8842775225        1.5167364140       -1.8901997436
H                10.4836702566        1.4349427135       -0.0066708921
H                 9.7536773015        0.6073842277        2.2259289980
H                 7.4203384801       -0.1368249914        2.5758556588
H                 5.1363115147       -0.5560271357        1.6700643310
H                -0.3374843211        0.6581882216       -1.8727441831
H                 0.4731444175       -0.6957654405       -2.6523577961
H                -1.2148589167       -2.2379689581       -2.0550739082
H                -2.1433422857       -0.7942140817       -2.3714116505
H                -2.7292875391       -4.0040003428        0.4750788942
H                -1.0067201914       -4.4711388546        0.5026760530
H                -1.7586913993       -3.9911868024       -1.0321707998
H                -3.9857588770       -0.6991890807       -0.7169114172
H                -3.7241118166       -2.4316944111       -0.8779569184



