%chk=./calculation/no_transfer_pubchem_sampling_4_b3lyp/70340479.chk
%nprocshared=7
%mem=6GB
#p b3lyp/6-31g(d) opt SCF=XQC 

Gaussian input prepared by ASE

0 1
C                -6.0145880109       -4.1994521263        0.7655002650
C                -6.0279757865       -2.9872164681        0.2437202616
C                -5.6034759798       -1.7619145325        1.0026854650
N                -4.1515725107       -1.6585971215        1.0713538533
C                -3.7292561733       -0.5829357877        1.9462879841
C                -2.2151583777       -0.6185701560        2.1102204572
C                -1.5064933183       -0.3786819042        0.7596256675
C                -1.7590842641        1.0669922648        0.3493759814
C                -1.3329335461        2.0708131340        1.2260977101
C                -1.5257414910        3.4060297935        0.9404641516
C                -2.1517501117        3.8076799759       -0.2280353073
C                -2.5770138046        2.8314662437       -1.1154833845
O                -3.1993101936        3.0695201245       -2.3070971655
C                -3.4428733818        4.4034197551       -2.6793064574
C                -2.3745624968        1.4816407823       -0.8194955652
C                 0.0132381304       -0.6052830884        0.9273766554
C                 0.7366089844       -0.9435123992       -0.3909942897
N                 2.0265506367       -0.2709970636       -0.4660085374
C                 2.0446171066        1.1602467327       -0.6569003581
C                 3.1574026878       -1.0076101866       -0.3652953546
O                 3.1546533775       -2.2094984791       -0.1691002478
C                 4.4454991997       -0.2556788910       -0.5213338139
C                 4.8329696517        0.2121590863       -1.7933204123
C                 6.0372733962        0.8318968378       -1.9644977435
C                 6.9157149339        1.0212843926       -0.8765390132
C                 8.1630248663        1.6630734600       -1.0206151259
C                 8.9943773863        1.8224010271        0.0524612371
C                 8.6170884932        1.3471694403        1.3183661963
C                 7.4144280418        0.7215863189        1.4910028057
C                 6.5335749957        0.5416061495        0.4040324939
C                 5.2887982802       -0.1043021594        0.5483074949
C                -0.1112089178       -0.6324592238       -1.6232037742
C                -1.4027642330       -1.4471270174       -1.5874096503
C                -2.0296625961       -1.5069170038       -0.1756215285
O                -1.5592494685       -2.6974117870        0.4685775225
C                -2.1749141467       -3.9187569301        0.1529743135
C                -3.5656482135       -1.4921891717       -0.2453836234
H                -5.7075266196       -4.3671842649        1.7844949215
H                -6.3044882290       -5.0697483804        0.2012692436
H                -6.3396923625       -2.8370627472       -0.7815596928
H                -6.0477100593       -0.8608244557        0.5404635951
H                -5.9657611217       -1.8324741090        2.0322656280
H                -4.0445274284        0.4046344068        1.5577217017
H                -4.2025744837       -0.7315694555        2.9207898864
H                -1.9354991706       -1.6071552157        2.4713053436
H                -1.9130957723        0.1228812131        2.8481356590
H                -0.8404004897        1.8142338526        2.1512847320
H                -1.1841102602        4.1554383293        1.6395274864
H                -2.2938525516        4.8577003660       -0.4264197410
H                -3.9408096156        4.3540678518       -3.6464000308
H                -2.5109889779        4.9692529147       -2.7814262856
H                -4.0974338602        4.9086461041       -1.9615562970
H                -2.7166136406        0.7900161580       -1.5680908374
H                 0.4693697345        0.2765967367        1.3755931444
H                 0.1597704454       -1.4344006384        1.6171188538
H                 0.9674075204       -2.0131688578       -0.3972115510
H                 1.1406878086        1.5954117769       -0.2317002076
H                 2.9097202721        1.5980747942       -0.1594027107
H                 2.0863686581        1.4237603161       -1.7180465472
H                 4.1702540186        0.0592186137       -2.6328447740
H                 6.3377219171        1.1852761444       -2.9408814743
H                 8.4500781359        2.0255478286       -1.9976844690
H                 9.9491322965        2.3139191740       -0.0654773390
H                 9.2877617588        1.4802446104        2.1547441398
H                 7.1198085098        0.3519397613        2.4627950813
H                 5.0011935448       -0.4827168861        1.5188616875
H                -0.3375870004        0.4319399572       -1.6642105944
H                 0.4544988973       -0.8916073861       -2.5212456533
H                -1.1715867121       -2.4735866577       -1.8793588541
H                -2.1113910745       -1.0583177263       -2.3203541763
H                -3.1773648570       -3.9904994582        0.5860708370
H                -1.5351431101       -4.6820714491        0.5951879200
H                -2.2348961830       -4.0964003808       -0.9274239768
H                -3.9113400391       -0.5533381753       -0.7056099534
H                -3.8999630453       -2.3165526872       -0.8798248587



