%chk=calculation/no_transfer_pubchem_sampling_4_b3lyp/70781856_rwf.chk
%rwf=calculation/no_transfer_pubchem_sampling_4_b3lyp/70781856_rwf.rwf
%nprocshared=14
%mem=3GB
#p b3lyp/6-31g(d) 6D 10F nosymm GFInput td=(50-50,nstate=2) SCF=XQC 

Gaussian input prepared by ASE

0 1
C                -2.3862048750       -2.0056297722        3.3008034018
C                -2.5425982708       -1.4050832172        1.9244050245
C                -3.5252841356       -1.9250682101        1.0388841928
C                -3.7415575863       -1.4057133192       -0.2192116443
C                -4.8041980093       -1.9604513809       -1.1317745744
C                -2.9371511943       -0.3028324483       -0.6549218436
N                -3.1912295494        0.2116672402       -1.8913262969
C                -2.4941424242        1.2537666392       -2.3095498601
C                -2.8158933510        1.8121762656       -3.6737067716
C                -1.4706787961        1.8410970198       -1.5212361721
C                -1.1574878998        1.3171184330       -0.2856411181
C                -0.0355571134        1.9881109284        0.4673791095
O                 0.0296626160        3.2082657640        0.5807597208
N                 0.9313750262        1.1742952136        0.9939693608
C                 2.2421143965        1.6550750727        1.4525059418
C                 2.8251807506        0.2270847072        1.1939075899
C                 4.0678491006        0.0951412802        0.3547009317
C                 5.1668807497       -0.6498462697        0.7940385071
C                 6.2981910258       -0.7507520242       -0.0135169222
C                 6.2941318628       -0.0985867240       -1.2459056587
N                 5.2573351778        0.6219553969       -1.6931984317
C                 4.1830920179        0.7074156189       -0.9035896865
C                 1.4481460562       -0.1350063468        0.5458143577
C                -1.9208801698        0.2146360448        0.2108936552
C                -1.7577980977       -0.3523251061        1.5040971969
H                -3.3144254131       -1.9196917094        3.8798867262
H                -2.1441956999       -3.0747481018        3.2448597031
H                -1.5919038513       -1.5095154693        3.8670051246
H                -4.1374434725       -2.7598876525        1.3758196256
H                -5.5444612212       -1.1943301474       -1.3869347950
H                -4.3742037009       -2.2976391006       -2.0811486030
H                -5.3205820712       -2.8030720177       -0.6613364398
H                -1.9401224958        1.7783696622       -4.3339596113
H                -3.1269687203        2.8622505728       -3.6065334162
H                -3.6227381091        1.2337558907       -4.1284598150
H                -0.9243059387        2.7041536262       -1.8895905008
H                 2.6477370071        2.4451743600        0.8107430688
H                 2.2556492688        2.0014261559        2.4907437192
H                 2.9639954328       -0.3147659444        2.1337509685
H                 5.1348135299       -1.1459630744        1.7617844287
H                 7.1650010737       -1.3225199240        0.3045953818
H                 7.1585619911       -0.1541834965       -1.9052745485
H                 3.3600751839        1.3035379783       -1.2980867476
H                 1.4780327361       -0.2411256097       -0.5448231657
H                 0.9278775354       -0.9963893741        0.9750020168
H                -1.0136883721        0.0686555698        2.1733748697



