%chk=./calculation/no_transfer_pubchem_sampling_4_b3lyp/70781856.chk
%nprocshared=7
%mem=6GB
#p b3lyp/6-31g(d) opt SCF=XQC 

Gaussian input prepared by ASE

0 1
C                -2.6293197947       -1.7619573227        3.4261657452
C                -2.6579487520       -1.2406100027        2.0219952195
C                -3.5482348746       -1.8167384216        1.0940345674
C                -3.6422374403       -1.3782027447       -0.1991837637
C                -4.6042671075       -1.9731535453       -1.1755740821
C                -2.8052323714       -0.3126545151       -0.6247749548
N                -2.9164360248        0.1187954899       -1.8958402301
C                -2.1742439345        1.1107414324       -2.3091763095
C                -2.3518741989        1.5659787889       -3.7231780843
C                -1.2236567804        1.7428622400       -1.4775268081
C                -1.0671692290        1.3112471939       -0.1868828440
C                -0.0340148329        1.9532687696        0.6905656959
O                -0.0839553827        3.1040084592        1.0762058381
N                 0.9787301510        1.1236075875        1.0007475998
C                 2.2309730966        1.3844904528        1.6844652111
C                 2.7529548983        0.0162730640        1.1917749845
C                 3.9113319726        0.0719205740        0.2484381609
C                 5.0559768833       -0.6884462489        0.4580554561
C                 6.1034679917       -0.6017962390       -0.4436599166
C                 5.9655885871        0.2472076867       -1.5310151682
N                 4.8836511008        0.9763052687       -1.7430317486
C                 3.8906083232        0.8913449773       -0.8793009038
C                 1.3687256732       -0.1908177508        0.5353621492
C                -1.8876192893        0.2602240101        0.2948767214
C                -1.8427984506       -0.2159937933        1.6194570642
H                -3.6107505450       -1.6569026286        3.8869194373
H                -2.3721553721       -2.8209203164        3.4323854265
H                -1.9035905305       -1.2216642204        4.0287348740
H                -4.1831175784       -2.6259051030        1.4287245035
H                -5.3134940314       -1.2147401125       -1.5012794477
H                -4.0706942187       -2.3143681548       -2.0600369995
H                -5.1457339689       -2.8054115723       -0.7334414330
H                -1.4157866741        1.4711423828       -4.2714659545
H                -2.6495847970        2.6130314550       -3.7439205659
H                -3.1156413408        0.9650054131       -4.2074995314
H                -0.6230234727        2.5534644068       -1.8628955221
H                 2.7617287081        2.2608500222        1.3062829778
H                 2.1157012772        1.4770393037        2.7669584443
H                 2.9598457931       -0.6865679289        1.9993763988
H                 5.1246899887       -1.3399145444        1.3184848895
H                 7.0040594430       -1.1794782760       -0.3051703829
H                 6.7518377127        0.3523626547       -2.2664485574
H                 3.0326813598        1.5136688147       -1.1007026746
H                 1.3785391013       -0.2948480953       -0.5531824460
H                 0.7699911462       -0.9990913343        0.9646052789
H                -1.1685002149        0.2553454229        2.3205696852



