%chk=calculation/no_transfer_pubchem_sampling_4_b3lyp/72068664_rwf.chk
%rwf=calculation/no_transfer_pubchem_sampling_4_b3lyp/72068664_rwf.rwf
%nprocshared=14
%mem=3GB
#p b3lyp/6-31g(d) 6D 10F nosymm GFInput td=(50-50,nstate=2) SCF=XQC 

Gaussian input prepared by ASE

0 1
C                -6.3041377700       -1.5420203897       -3.8330012570
C                -6.5313887238       -1.0458635205       -2.4013506820
C                -5.4522199008       -1.5397254679       -1.4253603159
C                -5.6281828349       -1.1180015231        0.0508478541
N                -4.7821482655        0.0128110805        0.4644823486
C                -5.0615344607        1.2863647872       -0.2202585207
C                -6.4115487333        1.9701134684        0.0772684013
C                -6.5564311283        3.3483696161       -0.5929885806
C                -6.6327500323        3.3138635370       -2.1246576868
C                -4.6712087901        0.1242068173        1.9239066601
C                -3.4510870386        0.9470056430        2.3531310879
N                -2.2693747794        0.4659024213        1.6597071148
C                -1.0415721292        0.4207595498        2.2484947350
O                -0.8419546866        0.8285641596        3.3925604158
C                 0.0725173859       -0.1698428790        1.4246941018
C                 0.0208789242       -0.3374678022        0.0334604571
C                 1.1069381516       -0.8837527958       -0.6462062902
C                 2.2489181007       -1.2894462347        0.0492602821
C                 2.3111846584       -1.1147579335        1.4426848538
C                 1.2293648180       -0.5420992027        2.1136169931
N                 3.4354281563       -1.5413121358        2.1606304101
C                 4.7353571021       -1.7570256960        1.7294355109
O                 5.5949800994       -2.0171728408        2.5654275609
C                 4.9704909435       -1.6313817486        0.2651857887
C                 6.1115346037       -1.2717941585       -0.3834689265
C                 7.4831106274       -0.9421585138       -0.0032130460
C                 8.0838800338       -1.1245984944        1.2645494741
C                 9.3995212014       -0.7553489945        1.4869361911
C                10.1748397730       -0.1924626695        0.4599462014
O                11.4532399873        0.1331739002        0.7913638531
C                12.2881080031        0.7000214393       -0.2078307245
C                 9.6084602511       -0.0123593832       -0.8087078133
C                 8.2867938093       -0.3908323739       -1.0223583522
S                 3.5870688612       -2.0998709308       -0.7839612883
H                -5.3456562223       -1.1847679404       -4.2293883112
H                -7.0940814260       -1.1928835603       -4.5074499604
H                -6.2899524313       -2.6381677402       -3.8749881326
H                -6.5777039720        0.0503975677       -2.4014651324
H                -7.5137573480       -1.3896007141       -2.0479261076
H                -4.4564085212       -1.2209446323       -1.7619877550
H                -5.4431931138       -2.6374002520       -1.4680711706
H                -6.6997857431       -0.9401313672        0.2592000492
H                -5.3352179617       -1.9586863631        0.6890704738
H                -4.2528453194        1.9837196942        0.0326477392
H                -4.9659662490        1.1024040627       -1.2946535628
H                -6.5221688283        2.1005593393        1.1612932560
H                -7.2407628753        1.3237976548       -0.2408829024
H                -5.7185013030        3.9896692649       -0.2835167732
H                -7.4633398673        3.8300946498       -0.2047122697
H                -7.4642370823        2.6834662157       -2.4641674266
H                -6.7926839034        4.3190412683       -2.5308832517
H                -5.7135770937        2.9233105782       -2.5758485278
H                -5.5718596509        0.5431063685        2.4061940141
H                -4.5497747873       -0.8924666586        2.3146684056
H                -3.2875945748        0.8454557011        3.4296462523
H                -3.6047923286        2.0174541033        2.1570080085
H                -2.4541808639       -0.0067238939        0.7835145235
H                -0.8416970431       -0.0079622120       -0.5377578853
H                 1.0745183148       -0.9957473587       -1.7261079695
H                 1.2624640060       -0.3762450734        3.1864544707
H                 3.3593593573       -1.5623374303        3.1711467619
H                 5.9682336997       -1.1797926114       -1.4600285909
H                 7.5045047448       -1.5696088835        2.0617629055
H                 9.8603255007       -0.9003646425        2.4591964552
H                11.8839796095        1.6512699772       -0.5777020813
H                13.2505284035        0.8796157651        0.2742936436
H                12.4276882572        0.0132634294       -1.0527671803
H                10.1808901956        0.4117553278       -1.6255521270
H                 7.8601712023       -0.2464103644       -2.0123306526



