%chk=./calculation/no_transfer_pubchem_sampling_4_b3lyp/72068664.chk
%nprocshared=7
%mem=6GB
#p b3lyp/6-31g(d) opt SCF=XQC 

Gaussian input prepared by ASE

0 1
C                -3.2095044572       -0.7705016244       -3.5562264158
C                -3.7152022820       -0.9410296966       -2.1291065463
C                -3.1541235477        0.1360378126       -1.2023227372
C                -3.6559848340        0.0116481653        0.2499479018
N                -4.4835706394        1.1488881181        0.6223130418
C                -5.8460828314        1.0921204071        0.1333915347
C                -6.7489514575        0.0273657602        0.7770033797
C                -8.2081998835        0.1547512659        0.3416165419
C                -8.4238214630       -0.1722415666       -1.1317835949
C                -4.3279253132        1.6088498499        1.9918864617
C                -3.3973933373        2.8392392903        2.0227225115
N                -2.2044619065        2.5991282727        1.2480113382
C                -1.0715974914        2.1118281338        1.8074272726
O                -0.8879170378        2.0666459487        3.0098809313
C                -0.0434502947        1.6331118065        0.8324665480
C                 0.0157027963        2.0397621790       -0.4996175782
C                 0.9868889102        1.5246861727       -1.3340421958
C                 1.9075970915        0.5964821081       -0.8632005404
C                 1.8643216965        0.1852749927        0.4706429258
C                 0.8889407613        0.7182181710        1.3035419689
N                 2.7347805028       -0.7749527237        0.9609827376
C                 3.8896327538       -1.2574442081        0.4091835884
O                 4.4774433446       -2.1749184174        0.9436283437
C                 4.3495379137       -0.6254554209       -0.8463670178
C                 5.6260646192       -0.5838262412       -1.2646270004
C                 6.8141585452       -0.9576792676       -0.5196816019
C                 6.9589496940       -0.7051969032        0.8470365146
C                 8.1145162938       -1.0503780025        1.5059851506
C                 9.1675473794       -1.6685485828        0.8260139961
O                10.2582556928       -1.9773145281        1.5756662347
C                11.3481161163       -2.6126076778        0.9526715933
C                 9.0422662291       -1.9053130282       -0.5394356331
C                 7.8844500967       -1.5378076507       -1.1976016201
S                 3.1011857603       -0.0619846155       -1.9769398348
H                -3.5132483874        0.1944924800       -3.9566231725
H                -3.6093354583       -1.5500852869       -4.2002128178
H                -2.1233338490       -0.8254645691       -3.5838167368
H                -4.8065240218       -0.8990118614       -2.1238000505
H                -3.4192257599       -1.9242687864       -1.7561874334
H                -3.4387901352        1.1189410229       -1.5846126262
H                -2.0631800276        0.0781858633       -1.2227250778
H                -4.1926172739       -0.9405919341        0.3701514120
H                -2.7998154201       -0.0194304491        0.9257325871
H                -6.2909888921        2.0791188436        0.2937042104
H                -5.7940404665        0.9224598219       -0.9434267616
H                -6.6936449951        0.1266974455        1.8638378148
H                -6.3876019341       -0.9695776463        0.5169038576
H                -8.5587279970        1.1698283582        0.5433303971
H                -8.8114416909       -0.5277937529        0.9451899816
H                -8.0410278583       -1.1646370151       -1.3612525797
H                -9.4847817853       -0.1525369072       -1.3702006662
H                -7.9209527482        0.5487100078       -1.7710595128
H                -5.2931322782        1.8995883285        2.4109473868
H                -3.9038752263        0.8278382091        2.6337354225
H                -3.0946600498        3.0592839147        3.0475283000
H                -3.9122912760        3.7031071861        1.5951693733
H                -2.3810598148        2.4121404699        0.2734391088
H                -0.6690026572        2.7781373181       -0.8865578491
H                 1.0443480339        1.8323024090       -2.3666329982
H                 0.8387083819        0.4201688934        2.3407262168
H                 2.4983513253       -1.1826712553        1.8578429336
H                 5.8023683745       -0.2298220468       -2.2742292511
H                 6.1662999328       -0.2126961708        1.3879541597
H                 8.2340556740       -0.8537133128        2.5595556057
H                11.7877673454       -1.9837708945        0.1715128160
H                12.0836325311       -2.7746284742        1.7390850827
H                11.0593707688       -3.5774364269        0.5236853892
H                 9.8380260419       -2.3704560371       -1.0999640810
H                 7.7982031721       -1.7292460438       -2.2576626412



