%chk=calculation/no_transfer_pubchem_sampling_4_b3lyp/77134907_rwf.chk
%rwf=calculation/no_transfer_pubchem_sampling_4_b3lyp/77134907_rwf.rwf
%nprocshared=14
%mem=3GB
#p b3lyp/6-31g(d) 6D 10F nosymm GFInput td=(50-50,nstate=2) SCF=XQC 

Gaussian input prepared by ASE

0 1
C                 3.2317019349        3.0028780197        0.0317474133
O                 4.1757660882        1.9947948512       -0.2874386511
C                 3.7183433213        0.7203447006       -0.4534558884
C                 2.3972374120        0.3155981451       -0.2804990140
C                 2.0106654229       -1.0251169117       -0.4879388323
C                 0.6208324101       -1.4707518178       -0.3088629921
N                 0.1859074928       -2.6407373478       -0.8695553776
C                -1.0876012585       -2.7728707610       -0.5073170984
C                -2.0384593115       -3.7756139883       -0.8078569091
C                -3.3078475885       -3.6801818731       -0.2930943158
C                -3.6923097145       -2.5866608169        0.5453578426
C                -5.0892965178       -2.5052029893        1.1090494568
C                -2.7649081842       -1.6170522077        0.8245021495
N                -1.4990751301       -1.7100060587        0.3024658919
C                -0.4004896893       -0.8646635150        0.4304139638
N                -0.4594780977        0.2489925087        1.2743132878
C                -0.8196556412        1.5420268946        0.8471375653
C                -0.6490152509        2.6281137437        1.7224974813
C                -1.0226108711        3.9156817844        1.3430701295
C                -1.5735736523        4.1161759474        0.0829487963
F                -1.9399552829        5.3648802204       -0.2882771582
C                -1.7525011630        3.0610897320       -0.8025028650
C                -1.3734826140        1.7741697938       -0.4216552903
C                 2.9809560060       -1.9508727681       -0.8840359812
C                 4.3065590950       -1.5511674771       -1.0523621113
C                 4.6911208547       -0.2299784318       -0.8384766344
O                 5.9740033574        0.2141280814       -0.9891192387
H                 3.7999200202        3.9327613788        0.0957597258
H                 2.4616483501        3.0983691698       -0.7450106678
H                 2.7402341407        2.8112399771        0.9952830567
H                 1.6488313061        1.0508822604       -0.0172317911
H                -1.7292264351       -4.5996601037       -1.4412090035
H                -4.0427220725       -4.4476153363       -0.5211543700
H                -5.8396850425       -2.4744616052        0.3092634615
H                -5.2218296884       -1.6106068786        1.7252923851
H                -5.3186228649       -3.3784249374        1.7324711715
H                -2.9540074749       -0.7514465019        1.4482221550
H                 0.1621947096        0.2276366298        2.0739731289
H                -0.2276179519        2.4607272093        2.7113376447
H                -0.8931216430        4.7588304588        2.0138972802
H                -2.1799067191        3.2501337011       -1.7819451545
H                -1.4983451445        0.9469412447       -1.1128167127
H                 2.6880024219       -2.9796558405       -1.0592686328
H                 5.0586317480       -2.2779731245       -1.3562827381
H                 6.5227919124       -0.5356771601       -1.2673325596



