%chk=./calculation/no_transfer_pubchem_sampling_4_b3lyp/81858884.chk
%nprocshared=7
%mem=6GB
#p b3lyp/6-31g(d) opt SCF=XQC 

Gaussian input prepared by ASE

0 1
C                -6.3440157606        0.9092953787       -0.3769644139
C                -5.3709874328        1.9694542088        0.1524672165
N                -4.0386888648        1.4978163458        0.4658356167
C                -3.2225327290        1.1343711657       -0.6860656774
C                -1.8957833958        0.6109779795       -0.2159838791
C                -0.8296260299        1.4822086077       -0.0014048892
C                 0.3800674644        1.0174272579        0.4600576218
C                 0.5071756647       -0.3586311587        0.7213373613
N                 1.6520806447       -0.9135485295        1.2132482060
C                 1.7500858429       -2.3450095706        1.3857599504
C                 2.5342045341       -3.0262054964        0.2654163966
C                 2.8218387145       -0.1244759451        1.4949614644
C                 3.6486077122        0.2862548153        0.2936329764
C                 3.2045755829        0.1160990466       -1.0092374164
C                 3.9912682169        0.5170225009       -2.0760115082
C                 5.2291709526        1.0929597857       -1.8538534771
C                 5.6795943378        1.2670382585       -0.5556426105
C                 4.8939941410        0.8661932561        0.5087599772
N                -0.5123871854       -1.1927469935        0.5061271517
C                -1.6733759295       -0.7370184290        0.0600874943
C                -2.7277206889       -1.7869649740       -0.1421740153
H                -5.9994073914        0.5003090891       -1.3240575797
H                -7.3254088956        1.3496387552       -0.5327751249
H                -6.4408394790        0.0940253547        0.3386332809
H                -5.2707756631        2.7744023043       -0.5814184072
H                -5.7806556602        2.4001512400        1.0718760011
H                -4.0903655222        0.7135967698        1.1094958177
H                -3.0722829551        2.0483555440       -1.2713231317
H                -3.7069388196        0.3907669440       -1.3398296843
H                -0.9583833438        2.5351856393       -0.2076546029
H                 1.2046013880        1.6973087217        0.5946992177
H                 0.7305577486       -2.7313357271        1.4082995272
H                 2.2317302767       -2.5482758762        2.3491720735
H                 2.6020945852       -4.0935852271        0.4599727089
H                 2.0300731507       -2.8787565027       -0.6857733026
H                 3.5408281434       -2.6200860436        0.1917058910
H                 3.4578331622       -0.7073319033        2.1697291314
H                 2.5271194261        0.7812902069        2.0422947862
H                 2.2404000883       -0.3306991057       -1.1961699431
H                 3.6322371124        0.3784458010       -3.0853529701
H                 5.8414434384        1.4053358832       -2.6868278888
H                 6.6454898440        1.7148794488       -0.3726918232
H                 5.2479315241        1.0033824980        1.5213580645
H                -3.0018893045       -1.8547209002       -1.1943899290
H                -3.6250377932       -1.5570527462        0.4292176607
H                -2.3379008524       -2.7477516783        0.1814586806



