%chk=calculation/no_transfer_pubchem_sampling_4_b3lyp/81858884_rwf.chk
%rwf=calculation/no_transfer_pubchem_sampling_4_b3lyp/81858884_rwf.rwf
%nprocshared=14
%mem=3GB
#p b3lyp/6-31g(d) 6D 10F nosymm GFInput td=(50-50,nstate=2) SCF=XQC 

Gaussian input prepared by ASE

0 1
C                -6.2609288193        1.7745995113       -0.0296548718
C                -4.9711129859        2.4850900324       -0.4714672944
N                -3.7101177354        1.9255822135        0.0157062162
C                -3.4046420031        0.5730045578       -0.4512305994
C                -2.0102037535        0.1363302645       -0.0405910222
C                -0.9984948966        1.0735995551        0.2019766221
C                 0.2806409251        0.6734418798        0.5556428514
C                 0.5366673087       -0.7111078500        0.6713866920
N                 1.7746354445       -1.2071212163        1.0532811164
C                 1.9542248072       -2.6519447755        1.2341520332
C                 2.3604968517       -3.4007113635       -0.0388266143
C                 2.8374240730       -0.3006379660        1.4495878451
C                 3.5985392477        0.4097271836        0.3304721228
C                 3.4505906146        0.0690026112       -1.0164436764
C                 4.1923770915        0.7266799119       -2.0012721318
C                 5.0919874893        1.7332782151       -1.6516936076
C                 5.2428590860        2.0838539739       -0.3076196869
C                 4.4984846760        1.4288141310        0.6721669956
N                -0.4195913127       -1.6204851757        0.4113338364
C                -1.6521312788       -1.2184664814        0.0687537261
C                -2.6375679884       -2.3323533274       -0.2094192048
H                -6.3039532096        0.7407289531       -0.3896434854
H                -7.1427949752        2.2979557422       -0.4185587013
H                -6.3418971250        1.7534293033        1.0647389497
H                -4.9189149287        2.5034789864       -1.5683367472
H                -5.0082465386        3.5329073310       -0.1468141908
H                -3.6991418131        1.9368411566        1.0352202457
H                -3.4846696626        0.5915560354       -1.5501659991
H                -4.1366962881       -0.1811285932       -0.1153887359
H                -1.2346756520        2.1291143214        0.1066802347
H                 1.0568363419        1.4121105387        0.7122558743
H                 1.0155170870       -3.0646874641        1.6108000884
H                 2.7163642368       -2.7923428317        2.0093297868
H                 2.4746347857       -4.4711300573        0.1726560210
H                 1.5884959152       -3.2851900782       -0.8055727000
H                 3.3110032280       -3.0296506862       -0.4377340638
H                 3.5552092106       -0.8843983497        2.0371610620
H                 2.4386403115        0.4585896131        2.1396615423
H                 2.7452830309       -0.7075638184       -1.2939270510
H                 4.0619487988        0.4511542315       -3.0447021717
H                 5.6680580829        2.2445965348       -2.4183160524
H                 5.9374055184        2.8702664577       -0.0232216783
H                 4.6182099829        1.7108210103        1.7171393092
H                -3.0527261193       -2.2663580016       -1.2230481069
H                -3.4871101877       -2.3076172681        0.4855990338
H                -2.1309168724       -3.2936629520       -0.1020518115



