%chk=./calculation/no_transfer_pubchem_sampling_4_b3lyp/98330511.chk
%nprocshared=7
%mem=6GB
#p b3lyp/6-31g(d) opt SCF=XQC 

Gaussian input prepared by ASE

0 1
C                 1.4755945070        7.3520230600        0.1453830753
C                 0.8573110712        6.0468315538       -0.1718199486
N                 1.2226939453        5.2889911138       -1.1408396933
N                 0.5310977285        4.1606938946       -1.2501721809
C                -0.3850450793        4.0449174055       -0.3476779174
N                -1.2325823981        2.9863452516       -0.2457857717
C                -2.2165069995        2.9170530402        0.6995414068
O                -2.4280970892        3.7745855871        1.5260166718
C                -2.9472953137        1.5962217921        0.4790342952
O                -3.9105658604        1.2312550490        1.1161034597
C                -2.2731570318        0.9596927416       -0.6371455338
C                -2.6392466566       -0.1694209001       -1.2955801475
O                -1.9872810695       -0.4783775009       -2.4332104715
C                -3.7193828237       -1.0632320450       -0.8683442366
C                -4.6484994295       -1.5187806142       -1.8070540881
C                -5.6858639474       -2.3379549457       -1.4164227628
C                -5.7952326973       -2.7523788000       -0.0940444477
C                -4.8193977693       -2.3629963776        0.8354436291
C                -3.8030338834       -1.5053802918        0.4462830613
O                -4.8266800245       -2.8145901089        2.1234088379
C                -5.7170509527       -3.8858405493        2.3470000743
C                -7.0511853010       -3.6169101551        1.6543324305
O                -6.8596801153       -3.5294854175        0.2576037079
C                -1.1067791771        1.8052742541       -1.0843746651
C                 0.2169117304        1.1192360419       -0.8392150459
C                 0.5227402276        0.6465797014        0.4274951384
C                 1.7339817431        0.0298977228        0.6865124550
C                 2.6646973419       -0.1231548475       -0.3365079608
O                 3.8808574587       -0.7097249962       -0.2053011664
C                 4.2792551826       -1.1837960309        1.0649730466
C                 5.6815953806       -1.7250234272        0.9666458602
C                 6.6246742109       -1.0817724513        0.1764820094
C                 7.9174189844       -1.5674318371        0.0981782827
C                 8.2822307459       -2.6939367821        0.8156991752
C                 7.3467177639       -3.3367495401        1.6080501937
C                 6.0506940717       -2.8570802320        1.6799732538
C                 2.3548160389        0.3528461801       -1.6125861954
C                 1.1480058002        0.9691238839       -1.8580298617
S                -0.4810059530        5.3875531925        0.7707216777
H                 2.2605037794        7.5608715759       -0.5760925021
H                 0.7270753256        8.1418339161        0.1092744378
H                 1.8991725849        7.3339905559        1.1483795755
H                -2.3312852503       -1.3036074491       -2.8030339555
H                -4.5970354959       -1.1821101962       -2.8328204060
H                -6.4372309187       -2.6635050305       -2.1174597425
H                -3.0761950124       -1.2061325465        1.1814963184
H                -5.2867668576       -4.8174850157        1.9534935077
H                -5.8389592166       -3.9665518271        3.4278576115
H                -7.7586671204       -4.4303233350        1.8193351154
H                -7.4715041723       -2.6755574215        2.0316848696
H                -1.1773296836        2.0915660802       -2.1396839369
H                -0.1909873604        0.7626085937        1.2320080841
H                 1.9373250041       -0.3221664978        1.6855517690
H                 4.2587656245       -0.3601666251        1.7970286133
H                 3.5957341734       -1.9713062000        1.4124111008
H                 6.3338571150       -0.2057249376       -0.3822807460
H                 8.6434150390       -1.0633252960       -0.5225329305
H                 9.2923654484       -3.0713247825        0.7566114017
H                 7.6248349312       -4.2173051538        2.1683152456
H                 5.3217889317       -3.3649069615        2.2957563513
H                 3.0876264930        0.2315207060       -2.3941600461
H                 0.9257692776        1.3440022323       -2.8443003835



