%chk=./calculation/no_transfer_pubchem_sampling_1_b3lyp/100027646.chk
%nprocshared=7
%mem=6GB
#p b3lyp/6-31g(d) opt SCF=XQC 

Gaussian input prepared by ASE

0 1
C                 5.4683847593        2.6849672892       -0.4035089130
O                 4.8412358730        1.6663897168       -1.1411389969
C                 3.7545976696        1.0436987795       -0.5968976116
C                 3.2064890137        1.3358663197        0.6449069344
C                 2.0971958282        0.6340991422        1.0903511178
C                 1.5142225930       -0.3572577476        0.3205604558
C                 0.3360795324       -1.1609991661        0.8318886122
C                 0.9130905433       -2.4427069451        1.4427089154
N                -0.5962939428       -1.3910905639       -0.2704832699
C                -1.3615918318       -2.6241578808       -0.2894126602
C                -2.5634194881       -2.6243138432        0.6676886863
N                -3.4130658319       -1.4860970589        0.3642023118
C                -2.6584042173       -0.2491868943        0.5111032405
C                -3.5365071852        0.9950562033        0.3230469461
C                -3.3899456604        1.5860165747       -1.0742017124
C                -1.9453785376        2.0324850986       -1.3299580026
C                -0.9175110257        1.0853436855       -0.6877154013
C                -1.5298816090       -0.3011286733       -0.5378407384
C                 2.0731686547       -0.6485175102       -0.9192744784
C                 3.1739367194        0.0413100644       -1.3760086313
H                 5.8616334485        2.3105922889        0.5476746409
H                 4.7875767047        3.5209394519       -0.2108194159
H                 6.2953722198        3.0312750183       -1.0217394637
H                 3.6278376163        2.1035898082        1.2750901925
H                 1.6832346235        0.8742410032        2.0604486785
H                -0.1399056600       -0.5954071092        1.6518047977
H                 1.6700739409       -2.1643975344        2.1735972312
H                 0.1516887004       -3.0310900874        1.9491815265
H                 1.3894326046       -3.0482661625        0.6760099348
H                -0.7154330604       -3.4741332189       -0.0791484609
H                -1.7451929131       -2.7376834969       -1.3088663635
H                -3.1426531478       -3.5404456384        0.5285609001
H                -2.1999015749       -2.5994766610        1.7127547314
H                -4.2240745027       -1.4825448599        0.9778486832
H                -2.1989959887       -0.1998094492        1.5193407245
H                -4.5801519659        0.7284046783        0.5043593875
H                -3.2542044442        1.7532169409        1.0565830630
H                -3.6899075141        0.8362106609       -1.8065710329
H                -4.0616674010        2.4395664304       -1.1852001915
H                -1.7980694066        3.0379488060       -0.9312919041
H                -1.7779384626        2.0824410890       -2.4070403657
H                -0.6219077729        1.4623721654        0.2925824289
H                -0.0206748025        1.0317121373       -1.3031994589
H                -1.9910483692       -0.5689242026       -1.4950429424
H                 1.6175476033       -1.4147197063       -1.5269903194
H                 3.6109296675       -0.1753869423       -2.3382088061



