%chk=calculation/no_transfer_pubchem_sampling_1_b3lyp/100027646_rwf.chk
%rwf=calculation/no_transfer_pubchem_sampling_1_b3lyp/100027646_rwf.rwf
%nprocshared=14
%mem=3GB
#p b3lyp/6-31g(d) 6D 10F nosymm GFInput td=(50-50,nstate=2) SCF=XQC 

Gaussian input prepared by ASE

0 1
C                 5.6345779096        2.6382878036       -0.3253966529
O                 4.9898331473        1.6481705851       -1.1072061263
C                 3.8779503324        1.0416524578       -0.5896929020
C                 3.3216959273        1.3280261082        0.6607974159
C                 2.1760298513        0.6408838939        1.0770227826
C                 1.5665845274       -0.3264092474        0.2776249950
C                 0.3681149692       -1.1263491943        0.7946647608
C                 0.9085978063       -2.4163199010        1.4432199298
N                -0.6131418991       -1.3765076926       -0.2844858254
C                -1.3699685262       -2.6372689424       -0.2712853471
C                -2.5638038144       -2.6557442474        0.6977919370
N                -3.4429099537       -1.5159912081        0.4163755428
C                -2.7048879386       -0.2485666216        0.5180115175
C                -3.6416381692        0.9704651250        0.3308985214
C                -3.5386291642        1.5726358569       -1.0757233070
C                -2.0978011221        2.0427824023       -1.3802058175
C                -1.0092765743        1.1176146851       -0.7657971171
C                -1.5806629840       -0.2871134964       -0.5489228527
C                 2.1400209739       -0.5994779018       -0.9736701420
C                 3.2767479895        0.0713241559       -1.4057449880
H                 5.9990733169        2.2295897528        0.6269404572
H                 4.9701284268        3.4883492379       -0.1186248123
H                 6.4848343989        2.9827236563       -0.9174478680
H                 3.7587813847        2.0781730676        1.3103362839
H                 1.7512622912        0.8755421492        2.0518274325
H                -0.0862599949       -0.5387435109        1.6113237276
H                 1.6737118416       -2.1455883163        2.1771494663
H                 0.1296645020       -2.9834271477        1.9633693378
H                 1.3825023114       -3.0663764300        0.6994394914
H                -0.7040620936       -3.4766043961       -0.0637792474
H                -1.7604135375       -2.7836349798       -1.2873726179
H                -3.1313642191       -3.5850254565        0.5608640876
H                -2.1885002262       -2.6491173347        1.7405460714
H                -4.2125860491       -1.5111520674        1.0849686817
H                -2.2177424782       -0.1586975958        1.5098107044
H                -4.6769930724        0.6740148790        0.5457217154
H                -3.3808605256        1.7409026125        1.0686213432
H                -3.8524174651        0.8179469459       -1.8073559955
H                -4.2369642732        2.4115891163       -1.1828447845
H                -1.9556650762        3.0623467055       -1.0007035542
H                -1.9638138417        2.1007257822       -2.4674859901
H                -0.6594405914        1.5319307735        0.1878864144
H                -0.1349001051        1.0745476020       -1.4199256897
H                -2.0686698280       -0.5835478749       -1.4874011444
H                 1.6639582095       -1.3337812819       -1.6165799688
H                 3.7193054057       -0.1347785094       -2.3758248668



