%chk=calculation/no_transfer_pubchem_sampling_1_b3lyp/10045908_rwf.chk
%rwf=calculation/no_transfer_pubchem_sampling_1_b3lyp/10045908_rwf.rwf
%nprocshared=14
%mem=3GB
#p b3lyp/6-31g(d) 6D 10F nosymm GFInput td=(50-50,nstate=2) SCF=XQC 

Gaussian input prepared by ASE

0 1
C                -7.2152015446        1.8381023269       -1.8228157365
C                -6.8755345055        1.6161713678       -0.3559123650
O                -5.4477860649        1.6347686888       -0.1372744065
C                -4.7936347068        0.4796863801       -0.3391153637
O                -5.3468021970       -0.5560265105       -0.6854312279
C                -3.3302416899        0.5804228946       -0.0947772900
C                -2.6476728015       -0.5949612136       -0.2888382473
N                -1.3122249728       -0.8035086592       -0.1415512763
C                -0.7192013477       -2.1837756528       -0.3929197619
C                -0.0787789462       -2.7064944014        0.9079659722
C                 0.2926472695       -2.1035637931       -1.5531740796
C                -1.8113705558       -3.1890966723       -0.8041725087
C                -0.5240053730        0.3033247072        0.2493266495
N                 0.7984094958        0.1261780824        0.3883660716
C                 1.5883444651        1.1463870548        0.7572634554
N                 2.9244067026        0.8940104032        0.8711465920
C                 3.4609488144       -0.4618659662        0.7173940852
C                 4.9404007825       -0.3164903683        1.1078752432
C                 5.8475527038       -1.4081497793        0.5453045678
C                 5.2713585053        1.1380851066        0.6672952714
N                 5.5463003310        1.3520831266       -0.7565906827
C                 3.9946584920        1.8921492838        1.0670632570
C                 1.0090460095        2.4209019784        1.0237346581
F                 1.7899761833        3.4449162322        1.4500925778
C                -0.3336200591        2.6096744826        0.8727328844
C                -1.1560610699        1.5417616615        0.4683392007
C                -2.6083687059        1.7844257334        0.3153435298
O                -3.0905075574        2.8980745469        0.5249647958
H                -8.3023301984        1.9070099310       -1.9477375282
H                -6.8509196335        1.0057276278       -2.4313858612
H                -6.7662136590        2.7678754476       -2.1868894925
H                -7.2491493282        2.4326018351        0.2669629386
H                -7.2802968620        0.6670824795        0.0043955806
H                -3.2412273272       -1.4427199085       -0.5907682838
H                 0.7273864870       -2.0580826390        1.2467116076
H                -0.8320873584       -2.7777007031        1.7004780752
H                 0.3254005117       -3.7099887481        0.7341905865
H                 1.1223728273       -1.4397061722       -1.3166771758
H                 0.6881347545       -3.1050074923       -1.7564652270
H                -0.2007963554       -1.7439173462       -2.4630584157
H                -1.3201578289       -4.1532283403       -0.9657728275
H                -2.5684456298       -3.3359862348       -0.0274627685
H                -2.3090564300       -2.9166395699       -1.7402085555
H                 3.3488799482       -0.8142941512       -0.3194614770
H                 2.9210254850       -1.1703289588        1.3532685638
H                 5.0024401010       -0.3389579370        2.2053912967
H                 6.8871732983       -1.2587130327        0.8601803132
H                 5.8243532246       -1.4228881440       -0.5506330738
H                 5.5372378055       -2.3993648991        0.8947065627
H                 6.1340360430        1.5247900330        1.2211147415
H                 6.3695111575        0.8259969984       -1.0435317828
H                 4.7715070447        1.0162131118       -1.3280325484
H                 3.8461333389        2.7697235193        0.4369120732
H                 4.0371551246        2.2216284581        2.1125648166
H                -0.7951011981        3.5716847942        1.0695689957



