%chk=calculation/no_transfer_pubchem_sampling_1_b3lyp/105752796_rwf.chk
%rwf=calculation/no_transfer_pubchem_sampling_1_b3lyp/105752796_rwf.rwf
%nprocshared=14
%mem=3GB
#p b3lyp/6-31g(d) 6D 10F nosymm GFInput td=(50-50,nstate=2) SCF=XQC 

Gaussian input prepared by ASE

0 1
C                 4.7618767496       -1.8239697213        0.3565282635
C                 3.9404723093       -0.5689727620        0.1062679497
C                 4.7212470835        0.7167950744        0.3305525580
C                 2.9154862287       -0.6110138832       -1.0058877983
C                 2.4570498101       -0.6494631357        0.4366864582
C                 1.6695238214        0.5066485960        1.0260461254
N                 0.2724851576        0.5265180691        0.6011667004
C                -0.1697904377        1.3164703104       -0.4164951575
O                 0.5530136280        2.1085299052       -1.0163525363
C                -1.6318080159        1.1139886588       -0.8602436371
C                -1.5990724070        0.1665930103       -2.0847046704
C                -3.0044349406       -0.2940955722       -2.4580395770
N                -3.5790689918       -1.0066269106       -1.3224114974
C                -3.5516608142       -0.3823852782       -0.0744837245
C                -4.4532427632       -0.7865652414        0.9279885123
C                -4.4455856470       -0.1859751170        2.1809097580
C                -3.5401475343        0.8404901987        2.4621026095
C                -2.6405079689        1.2368997112        1.4744262528
C                -2.6102090081        0.6357761357        0.2078920824
H                 5.1275382546       -1.8591256149        1.3913434850
H                 5.6370780722       -1.8582232788       -0.3054912144
H                 4.1747772789       -2.7322971854        0.1789026295
H                 5.0487074259        0.8091418412        1.3746572896
H                 5.6212397429        0.7242279557       -0.2977227477
H                 4.1431613067        1.6098526161        0.0763331229
H                 2.7196580862        0.3063438467       -1.5553458236
H                 2.8286527281       -1.5173153055       -1.6011910281
H                 2.1261455631       -1.6238876028        0.7984425070
H                 2.0895886340        1.4651848248        0.7179391980
H                 1.6935429114        0.4661050889        2.1224015702
H                -0.3860496992       -0.1051909323        1.0355301390
H                -1.9438507627        2.1060210336       -1.2105114437
H                -0.9960113064       -0.7189233653       -1.8492885613
H                -1.1196954998        0.6804722285       -2.9229767805
H                -2.9675720291       -0.9801685439       -3.3109792526
H                -3.6172225884        0.5754582233       -2.7550236665
H                -4.4539619719       -1.4764365224       -1.5209447948
H                -5.1660829063       -1.5786363203        0.7062885056
H                -5.1555064014       -0.5139071603        2.9358896277
H                -3.5363650569        1.3261830561        3.4333428529
H                -1.9333950416        2.0354830688        1.6864537145



