%chk=./calculation/no_transfer_pubchem_sampling_1_b3lyp/10708369.chk
%nprocshared=7
%mem=6GB
#p b3lyp/6-31g(d) opt SCF=XQC 

Gaussian input prepared by ASE

0 1
C                 3.9041217112        1.5588281958       -1.4374449828
C                 3.6590321032        0.6035585929       -0.2685883538
C                 3.4012982872        1.3897323263        1.0154586419
C                 4.8322207139       -0.3614807614       -0.1042453287
O                 2.4673114712       -0.1215688805       -0.6618541400
C                 1.8950799395       -0.9840988766        0.1861253692
O                 2.3426692725       -1.3532866923        1.2477130411
N                 0.7237472692       -1.4657258362       -0.3178109043
C                 0.0722406598       -0.9356384301       -1.4965071123
C                -1.4188238447       -0.6906269838       -1.2185771422
C                -1.6059221930       -0.2612565529        0.2464396644
C                -0.7073755580        0.8518394566        0.4952297504
N                -0.0189621301        1.7450625437        0.6834110565
C                -3.0109955608        0.2036277886        0.5968535379
C                -3.2028318111        0.9008503880        1.7860189858
C                -4.4660631789        1.3139287997        2.1659252447
C                -5.5589868503        1.0327337028        1.3637944435
C                -5.3768129469        0.3372771342        0.1823751008
C                -4.1115742003       -0.0756654566       -0.2009746447
C                -1.2187470169       -1.4460852562        1.1691501787
C                -0.1114269070       -2.2920176684        0.5202354724
H                 4.0123773049        0.9971492305       -2.3618943623
H                 4.8082180730        2.1343590472       -1.2634141499
H                 3.0632371640        2.2395763452       -1.5404407019
H                 3.2988550882        0.7119034418        1.8581595214
H                 2.4822972218        1.9636911494        0.9178340421
H                 4.2297621687        2.0670972929        1.2028785044
H                 4.6246830085       -1.0643724920        0.6978077940
H                 5.7331940780        0.1956105469        0.1370688768
H                 4.9941281643       -0.9162998297       -1.0261989260
H                 0.5693480623       -0.0034355106       -1.7685541308
H                 0.1854929872       -1.6415808466       -2.3298761920
H                -1.7895465234        0.0829143247       -1.8929557217
H                -1.9893184041       -1.6045997098       -1.3908471519
H                -2.3537917812        1.1282382679        2.4143861285
H                -4.5962599408        1.8571744160        3.0898106270
H                -6.5466283728        1.3546232410        1.6579327318
H                -6.2231556505        0.1124231199       -0.4498534851
H                -3.9986985643       -0.6172392055       -1.1271309112
H                -0.8746771571       -1.0567692577        2.1284921733
H                -2.1019612764       -2.0618281863        1.3500512987
H                 0.5228583151       -2.7425341970        1.2845060226
H                -0.5396131950       -3.0860857219       -0.0989638661



