%chk=./calculation/no_transfer_pubchem_sampling_1_b3lyp/108151406.chk
%nprocshared=7
%mem=6GB
#p b3lyp/6-31g(d) opt SCF=XQC 

Gaussian input prepared by ASE

0 1
C                -4.8345851451       -1.2797930362       -0.8156484818
C                -3.5535427836       -1.3314608921        0.0076885590
C                -2.7046420503       -0.0768295664       -0.1877780227
C                -1.4244925197       -0.1272073762        0.6421532767
C                -0.4858937182        1.0592095322        0.3787680060
C                -1.0455966632        2.3796643163        0.8981710287
N                 0.7975178448        0.8183223717        1.0039595170
C                 1.8761363435        0.3615999877        0.3476536914
N                 1.8300874220        0.2071204423       -0.9808554546
C                 2.9280994083       -0.2162699596       -1.5752823984
N                 4.0800449375       -0.5153825609       -1.0167210508
C                 4.1711292418       -0.3794763369        0.3122915293
C                 5.4686099280       -0.7165891403        0.9695198088
C                 3.0764649875        0.0609015099        1.0228341377
F                 3.1254750248        0.2111111920        2.3771196674
H                -4.6028948286       -1.1940239557       -1.8749333344
H                -5.4233707399       -2.1814463307       -0.6648819639
H                -5.4396580776       -0.4227516939       -0.5275957162
H                -2.9716604709       -2.2092163396       -0.2816982363
H                -3.8061183839       -1.4357311968        1.0654960292
H                -2.4428174133        0.0197290804       -1.2435016249
H                -3.2960706628        0.7964569184        0.0925047067
H                -0.8834963737       -1.0442739658        0.3968123020
H                -1.6772059655       -0.1605465561        1.7052967182
H                -0.2876522809        1.1282307462       -0.6947034412
H                -1.9567458953        2.6401058775        0.3691364304
H                -0.3209636718        3.1759049156        0.7469708250
H                -1.2685336490        2.3066442498        1.9610865508
H                 0.8439210635        0.8548723097        2.0110387445
H                 2.8687268110       -0.3323681633       -2.6496346654
H                 5.3248160084       -1.5187594033        1.6916803876
H                 6.1821642664       -1.0274208740        0.2133641310
H                 5.8527470059        0.1496758983        1.5056943428



