%chk=./calculation/no_transfer_pubchem_sampling_1_b3lyp/108212760.chk
%nprocshared=7
%mem=6GB
#p b3lyp/6-31g(d) opt SCF=XQC 

Gaussian input prepared by ASE

0 1
C                 5.0394553080        0.1849391280        1.0077999555
C                 3.5722071754        0.2049142070        0.7023044744
C                 2.7930620314        1.3148022513        0.9904930296
C                 1.4419095938        1.3284695695        0.7002744147
C                 0.8196783229        0.2364066314        0.1006004560
N                -0.5433240236        0.2189681542       -0.2419012001
C                -1.4306400702       -0.6487646133        0.5208900869
C                -1.9402758862        0.2363974579        1.6791199914
C                -1.8972834107        1.6604110431        1.1041971638
C                -1.2999766438        1.4585397733       -0.3047479471
C                -2.4016713839        1.2368378768       -1.3482186587
C                -3.3646079417        0.1251557030       -0.9112263092
O                -4.2603687757       -0.2285117303       -1.9406578479
C                -2.5679488338       -1.0855483052       -0.4062579635
C                 1.6119342497       -0.8750220127       -0.2254681525
C                 1.0265236762       -2.0544879349       -0.9591896186
O                 2.0248992549       -2.6790522613       -1.7397022968
C                 2.9593170664       -0.8791813391        0.0901242263
H                 5.3722610807       -0.8243080693        1.2387118438
H                 5.6055246470        0.5356691275        0.1440989222
H                 5.2699557395        0.8353543995        1.8487775170
H                 3.2424529133        2.1798558699        1.4580922177
H                 0.8696683291        2.2079358253        0.9512443000
H                -0.8949690047       -1.5240850228        0.8912142978
H                -2.9368963786       -0.0601497972        1.9993594994
H                -1.2658344940        0.1438838674        2.5307453181
H                -1.2577420089        2.3036822485        1.7076050516
H                -2.8810865046        2.1226073605        1.0533284448
H                -0.6655444837        2.2861271335       -0.6268633744
H                -1.9269326016        0.9469579736       -2.2896655853
H                -2.9589673699        2.1590158582       -1.5192137224
H                -4.0166726389        0.4924487948       -0.1138784833
H                -3.7505057562       -0.5440699293       -2.6961793718
H                -2.1368292680       -1.6065864743       -1.2654719696
H                -3.2354978796       -1.7791752631        0.1068986665
H                 0.2045200198       -1.6955763794       -1.5943525482
H                 0.6112693667       -2.7804715897       -0.2399606028
H                 1.6259304782       -3.4084392831       -2.2239444780
H                 3.5430051052       -1.7459502492       -0.1789757472



