%chk=./calculation/no_transfer_pubchem_sampling_1_b3lyp/108617063.chk
%nprocshared=7
%mem=6GB
#p b3lyp/6-31g(d) opt SCF=XQC 

Gaussian input prepared by ASE

0 1
C                 4.0050139643       -1.0130769032        3.3543255443
C                 4.9351797625       -0.1881821648        2.4685955113
C                 6.0752401064       -1.0449981405        1.9253431272
C                 4.1458377436        0.4435486087        1.3167227032
O                 3.6030423949       -0.5930074870        0.5212783428
C                 2.7176537068       -0.2850786089       -0.4469466326
C                 2.3627167158        1.0068323045       -0.8300625301
C                 1.3944929595        1.2015728267       -1.7965279516
C                 0.7773786996        0.1230222222       -2.4156080406
C                -0.3149013901        0.3005471484       -3.3911193264
O                -0.1603885862       -0.2418453269       -4.6073496293
C                -1.4724587604        0.9169653199       -3.0527095001
C                -2.6622374677        1.0077879495       -3.8928779153
O                -2.7900672527        0.7245085518       -5.0597597470
C                -3.7718252133        1.5259531599       -2.9756704351
O                -4.9340691721        1.7223502893       -3.2510233509
N                -3.2073820704        1.7443126478       -1.7648883524
C                -3.9551221432        2.2395233419       -0.6309366880
C                -4.2524992316        1.1614590961        0.3603302373
C                -5.0677102985        0.0711292151        0.2800972795
C                -4.9092297243       -0.6294850793        1.5002783474
C                -4.0127465814        0.0875352734        2.2284253057
O                -3.6089623102        1.1729195619        1.5480808039
C                -1.7941969069        1.4360916641       -1.6700251273
C                -1.4977873214        0.4185270465       -0.5923614487
C                -2.0044527496       -0.8692824891       -0.6988060812
C                -1.7286327149       -1.8152997840        0.2679424418
C                -0.9313535936       -1.4867058710        1.3583852695
O                -0.6251066559       -2.3874174464        2.3283387082
C                -0.4278472616       -0.1958883660        1.4742996391
C                -0.7186749591        0.7454791535        0.5087248897
C                 1.1838006742       -1.1691774765       -2.0801656626
C                 2.1290724556       -1.3710769877       -1.1024851604
H                 4.5629603229       -1.4666239184        4.1693460971
H                 3.5376696731       -1.8009462350        2.7698099634
H                 3.2226884990       -0.3878896951        3.7788956197
H                 5.3554529544        0.6344757374        3.0580586179
H                 6.6411599884       -1.4832761326        2.7432988521
H                 5.6746409848       -1.8453133236        1.3092840337
H                 6.7518053047       -0.4459558667        1.3197984941
H                 3.3376175145        1.0675111144        1.7209824477
H                 4.8093087489        1.0746306093        0.7088631767
H                 2.8292748398        1.8661183683       -0.3756145775
H                 1.1238491022        2.2057976896       -2.0850819705
H                 0.7043550545       -0.6668507295       -4.6842418242
H                -4.8882594008        2.6412689510       -1.0387646758
H                -3.3881204545        3.0346755188       -0.1371222737
H                -5.6984008890       -0.1901802286       -0.5444043439
H                -5.4004783447       -1.5351091486        1.7914429980
H                -3.5976704772       -0.0599603088        3.2054411201
H                -1.2449520957        2.3627478331       -1.4445145312
H                -2.6236638877       -1.1301565147       -1.5444165370
H                -2.1341636779       -2.8143107872        0.1797375366
H                -1.0486043447       -3.2328941636        2.1360721102
H                 0.1802206776        0.0483133345        2.3304516352
H                -0.3335813481        1.7489784700        0.6139044968
H                 0.7186035863       -2.0185100270       -2.5602577617
H                 2.4265108510       -2.3660837965       -0.8126352751



