%chk=calculation/no_transfer_pubchem_sampling_1_b3lyp/108617063_rwf.chk
%rwf=calculation/no_transfer_pubchem_sampling_1_b3lyp/108617063_rwf.rwf
%nprocshared=14
%mem=3GB
#p b3lyp/6-31g(d) 6D 10F nosymm GFInput td=(50-50,nstate=2) SCF=XQC 

Gaussian input prepared by ASE

0 1
C                 5.6622718435       -0.9605972300        3.0713703862
C                 6.0893032002        0.0974027000        2.0433160116
C                 7.2175797318       -0.4122287515        1.1344868372
C                 4.8976090964        0.6068946621        1.2305936660
O                 4.3532388567       -0.4860588792        0.4824805346
C                 3.2698821043       -0.2780323107       -0.3061189192
C                 2.6269373843        0.9574968963       -0.4712552118
C                 1.5143809768        1.0517427016       -1.3062141568
C                 1.0210235949       -0.0650737290       -1.9922160966
C                -0.1218021743        0.0320705586       -2.9279822767
O                 0.0806221664       -0.5209834306       -4.1497354559
C                -1.3343033899        0.5881432347       -2.6577281299
C                -2.3969636680        0.8102351548       -3.6478905135
O                -2.4400463628        0.5375023059       -4.8327491809
C                -3.5331904962        1.5303794756       -2.8988700013
O                -4.5883933414        1.9339946760       -3.3617874677
N                -3.1282140978        1.6448532710       -1.5979078593
C                -3.9642475692        2.3306435277       -0.6139251253
C                -5.0351424421        1.4851464707        0.0038699491
C                -6.2281649517        1.0119675333       -0.4589125680
C                -6.7972902157        0.2381179720        0.6046912747
C                -5.9099149662        0.3014571629        1.6356025896
O                -4.8298076922        1.0570703035        1.2893303745
C                -1.8141892960        1.0616087763       -1.2844691330
C                -1.8953230032       -0.0346899550       -0.2261171192
C                -2.6462012377       -1.1956713758       -0.4464092484
C                -2.7309544744       -2.1885603665        0.5243961668
C                -2.0564682902       -2.0355109306        1.7425119446
O                -2.1017782530       -2.9777521800        2.7332928459
C                -1.3022027087       -0.8840197348        1.9778859007
C                -1.2317083590        0.1029224682        0.9969302507
C                 1.6907544841       -1.2952527300       -1.8314893932
C                 2.7907251648       -1.4045864090       -0.9959989016
H                 6.5155392674       -1.2705180090        3.6846375587
H                 5.2620237927       -1.8496888245        2.5733257802
H                 4.8877801087       -0.5740898907        3.7447373913
H                 6.4597003528        0.9777696134        2.5898167018
H                 8.0856524590       -0.7168646006        1.7293321778
H                 6.8871244881       -1.2769654143        0.5498247620
H                 7.5471414164        0.3635463882        0.4328236386
H                 4.1232651775        1.0152498909        1.8955142786
H                 5.2138830974        1.4011874150        0.5393803348
H                 2.9898688979        1.8456871711        0.0320990654
H                 1.0431042235        2.0191931732       -1.4496446632
H                 1.0300231418       -0.7018971890       -4.2491934534
H                -4.4311290562        3.1681653764       -1.1415518702
H                -3.3181628202        2.7295475381        0.1738485252
H                -6.6317106559        1.1907762050       -1.4455378912
H                -7.7422558203       -0.2875881820        0.6001173309
H                -5.8958235480       -0.1025823985        2.6364381822
H                -1.1776917546        1.8623416840       -0.8832034385
H                -3.1795298862       -1.3251948477       -1.3842159076
H                -3.3240813541       -3.0825347857        0.3389765496
H                -2.6613073735       -3.7139005677        2.4407201254
H                -0.7856970417       -0.7760412411        2.9263741727
H                -0.6424799314        0.9967182725        1.1891639111
H                 1.3198721641       -2.1791519297       -2.3440895361
H                 3.2968690400       -2.3537966855       -0.8524977000



