%chk=./calculation/no_transfer_pubchem_sampling_1_b3lyp/108995458.chk
%nprocshared=7
%mem=6GB
#p b3lyp/6-31g(d) opt SCF=XQC 

Gaussian input prepared by ASE

0 1
C                 7.4796846675       -0.7897335059       -0.4955773085
N                 6.0754332555       -0.9522320761       -0.1934737737
C                 5.2483769459       -0.6052750663       -1.3380307864
C                 3.7911334774       -0.4171573931       -0.9344679548
N                 3.6741524861        0.6961198100       -0.0145881294
C                 2.5135844744        1.2923005384        0.3282720132
O                 2.4581735169        2.1679624246        1.1736429179
C                 1.2624491991        0.8114361931       -0.3991320729
N                 0.1353234324        1.5875122297        0.0409255447
C                -1.1277779557        1.0307917329        0.1594101744
C                -2.0501214840        1.5765254267        1.0520415751
C                -3.3381674471        1.0933350668        1.1393738082
C                -3.7653005450        0.0260055467        0.3417940559
N                -5.0359849618       -0.4950035169        0.4519007552
C                -5.6372824969       -1.2946907235       -0.5972799500
C                -7.1451508701       -1.1170398011       -0.4106187347
C                -7.2661058818       -0.7942630883        1.0756993643
C                -6.0412108426        0.0826658361        1.3157854495
C                -2.8362695700       -0.5257250072       -0.5441162781
C                -1.5505981405       -0.0292469923       -0.6401592192
C                 4.8811550224        1.0232206845        0.7249649131
C                 5.6447455852       -0.2650681170        1.0202277285
H                 7.7611391218        0.2528560411       -0.7123528585
H                 7.7211995170       -1.3976606154       -1.3668777718
H                 8.0695653360       -1.1464510352        0.3465703891
H                 5.3173783677       -1.4210759119       -2.0645975468
H                 5.6000061375        0.3160344922       -1.8350832062
H                 3.1991409292       -0.2222249860       -1.8323122060
H                 3.4218032584       -1.3412654174       -0.4708914407
H                 1.1295985548       -0.2608242170       -0.1893920070
H                 1.4045558096        0.9313112093       -1.4829756327
H                 0.3949638918        2.2190865803        0.7923688234
H                -1.7453750710        2.3998368858        1.6829497622
H                -4.0163990909        1.5516548659        1.8417671638
H                -5.3106150985       -0.9636467262       -1.5893051753
H                -5.3522680424       -2.3491371375       -0.4761740731
H                -7.7059586696       -2.0035118060       -0.7003102094
H                -7.4988614433       -0.2719651283       -1.0029969727
H                -8.1963724143       -0.2891781015        1.3278432542
H                -7.1898341857       -1.7090100321        1.6644726928
H                -5.7114850081        0.0561286145        2.3583116780
H                -6.2578725963        1.1286298133        1.0453881659
H                -3.1147708855       -1.3614897343       -1.1673972234
H                -0.8731964339       -0.4742591632       -1.3542133746
H                 5.5041185918        1.7146793349        0.1452240779
H                 4.5789805252        1.5261430666        1.6456917031
H                 4.9884440822       -0.9411888984        1.5813219474
H                 6.5118719493       -0.0459091955        1.6444469480



