%chk=./calculation/no_transfer_pubchem_sampling_1_b3lyp/112352817.chk
%nprocshared=7
%mem=6GB
#p b3lyp/6-31g(d) opt SCF=XQC 

Gaussian input prepared by ASE

0 1
C                -6.7218649414        0.7567400961        1.9351932242
C                -5.5811807331        0.9022076343        0.9381897613
C                -4.6143960634       -0.2787880262        1.0433298924
N                -3.5090955896       -0.1456689245        0.1325321174
C                -3.4762950115       -0.3527728982       -1.2192871992
C                -4.6386834539       -0.7922989187       -2.0482152085
O                -5.5005432882        0.2775082351       -2.3635201994
N                -2.3080423175       -0.0760064306       -1.7068503185
N                -1.5485973428        0.3241201313       -0.6653226585
C                -0.1478966889        0.6423718834       -0.8215238836
N                 0.6308643457       -0.5683143043       -0.8171892222
C                 1.1281812931       -0.9692672657        0.4882492391
C                 2.3710592465       -0.1751446388        0.9000091357
N                 3.4002698410       -0.3108243380       -0.1136841066
C                 4.7339454147       -0.1462976940        0.2481365842
C                 5.2421258245       -0.8525385598        1.3441028936
C                 6.5723197448       -0.7575594589        1.6956796949
C                 7.4410958842        0.0345061532        0.9624115640
C                 6.9542757231        0.7316459885       -0.1279574921
C                 5.6201170701        0.6491313936       -0.4819227507
C                 2.9388524866        0.1594249492       -1.4008739896
C                 1.6922602009       -0.6471908046       -1.7968524077
C                -2.2568834126        0.2934351523        0.4932844966
S                -1.7504859541        0.7116948544        1.9990989480
H                -7.2872900307       -0.1519886339        1.7408765399
H                -6.3371779566        0.7134932986        2.9515106199
H                -7.3978074838        1.6040224534        1.8587129831
H                -5.0309116795        1.8235763143        1.1402668949
H                -5.9782678210        0.9547305588       -0.0774606958
H                -4.1842559233       -0.3206517426        2.0488098578
H                -5.1361794232       -1.2174571519        0.8373122661
H                -5.2480526601       -1.5116415616       -1.4958466121
H                -4.2486786342       -1.2675557686       -2.9560638136
H                -5.0242433511        0.9105149775       -2.9129569137
H                 0.0952254310        1.3336042024       -0.0012547068
H                -0.0464010311        1.1512956956       -1.7831152799
H                 1.3804133189       -2.0313249820        0.4286468038
H                 0.3394488886       -0.8356313721        1.2288064977
H                 2.1009453635        0.8876320435        1.0262506949
H                 2.7362460637       -0.5384411190        1.8582066692
H                 4.5903761690       -1.4976403648        1.9137606410
H                 6.9377886353       -1.3156536349        2.5457648466
H                 8.4823739488        0.1052048808        1.2378306152
H                 7.6164836476        1.3584200073       -0.7083079238
H                 5.2704588769        1.2255708044       -1.3246319724
H                 2.6940604286        1.2361442025       -1.3821484962
H                 3.7155174355       -0.0137563065       -2.1468685093
H                 1.3149719699       -0.3117409917       -2.7644502288
H                 1.9735575391       -1.7008400188       -1.8806678924



