%chk=calculation/no_transfer_pubchem_sampling_1_b3lyp/113528081_rwf.chk
%rwf=calculation/no_transfer_pubchem_sampling_1_b3lyp/113528081_rwf.rwf
%nprocshared=14
%mem=3GB
#p b3lyp/6-31g(d) 6D 10F nosymm GFInput td=(50-50,nstate=2) SCF=XQC 

Gaussian input prepared by ASE

0 1
C                -1.7346066642        5.0122376157        0.3971106243
C                -2.5212142766        3.8385770291       -0.2085735555
N                -2.0598553804        2.4927073783        0.1345301999
C                -0.7194199681        2.1425992567       -0.3334922492
C                -0.4400074563        0.6335252760       -0.1481044553
C                -1.3825012088       -0.1780115954       -1.0763941647
C                -1.6360968040       -1.6236269414       -0.6981072015
C                -1.2572631579       -2.6765341465       -1.5413931890
C                -1.5151830980       -4.0060869831       -1.2001780619
C                -2.1634448253       -4.3090151524       -0.0026638779
C                -2.5567400917       -3.2705403852        0.8449266164
C                -2.2980289270       -1.9449732754        0.4972371827
C                 1.0834145723        0.3348814079       -0.2764070826
C                 1.6372739282        0.5809108721       -1.6915055728
C                 1.4624259065       -1.0648954867        0.2615357621
C                 2.9021185091       -1.2133992679        0.7479094195
O                 3.8096589354       -1.1810472056       -0.3426872606
C                 5.1511198386       -1.3358290234        0.0629627162
H                -0.6903434041        5.0173268817        0.0656789445
H                -2.1815158601        5.9703267241        0.1050168802
H                -1.7391510352        4.9633806009        1.4937375265
H                -2.5139650470        3.9177812432       -1.3037575283
H                -3.5725028747        3.9118731317        0.0987557185
H                -2.1069598577        2.3665539207        1.1453119874
H                 0.0828260469        2.7178199071        0.1636382373
H                -0.6717468553        2.4029974594       -1.3993793709
H                -0.7153782386        0.3953283196        0.8920604806
H                -2.3408233004        0.3560452727       -1.0696326988
H                -1.0075007993       -0.1320669475       -2.1057909519
H                -0.7543414020       -2.4512609033       -2.4795802460
H                -1.2099190167       -4.8041091994       -1.8724783200
H                -2.3660372652       -5.3424866073        0.2658411811
H                -3.0727868161       -3.4934703520        1.7756727847
H                -2.6234809170       -1.1437463032        1.1575422500
H                 1.5736581286        1.0631057113        0.3907730808
H                 1.2215503424       -0.1314997023       -2.4139097894
H                 1.4066865174        1.5915599282       -2.0480657223
H                 2.7214698580        0.4515780321       -1.6985093996
H                 1.2672553267       -1.8377387813       -0.4903438221
H                 0.8193446890       -1.3070780655        1.1180483417
H                 3.0101881527       -2.1710880934        1.2869149175
H                 3.1487874344       -0.4101237241        1.4663843399
H                 5.7689115698       -1.3097658950       -0.8388054436
H                 5.4715095642       -0.5258982102        0.7390914726
H                 5.3126172274       -2.2968247212        0.5788432995



