%chk=calculation/no_transfer_pubchem_sampling_1_b3lyp/114739510_rwf.chk
%rwf=calculation/no_transfer_pubchem_sampling_1_b3lyp/114739510_rwf.rwf
%nprocshared=14
%mem=3GB
#p b3lyp/6-31g(d) 6D 10F nosymm GFInput td=(50-50,nstate=2) SCF=XQC 

Gaussian input prepared by ASE

0 1
C                -4.3470453567       -3.3145398497       -1.9236769347
C                -3.4997654749       -2.0726403699       -1.6335783791
C                -2.9723259292       -2.0384867618       -0.1837549911
C                -2.0893618927       -0.8385823653        0.0744236286
N                -0.8105175202       -0.9682889344       -0.3149207911
C                 0.0076836130        0.0752439134       -0.1163887695
C                 1.4408967960       -0.0660886468       -0.5853775000
C                 1.7351635098        0.8731971850       -1.7751093429
C                 3.1289517089        0.5842785701       -2.3820686835
C                 4.1311805315        0.0436463819       -1.3359416498
C                 3.8528643565        0.6399504498        0.0535999174
C                 4.9714106828        0.3682699907        1.0821976922
C                 5.3426089746       -1.1042637875        1.3039263601
C                 2.4576034449        0.1918784182        0.5603730166
N                -0.3457044118        1.2368775769        0.4493749703
C                -1.6234636353        1.3715177954        0.8295888616
C                -2.5677764550        0.3501194797        0.6492303432
C                -4.0131752378        0.5408365834        1.0969980179
N                -4.3927848476        1.9215469686        1.4010522055
C                -3.3622257110        2.6013172361        2.1903361774
C                -2.0127576717        2.6903400400        1.4615170234
H                -5.2262011860       -3.3602733328       -1.2690863202
H                -4.7028635519       -3.3176686538       -2.9601415006
H                -3.7683997504       -4.2327252835       -1.7663381103
H                -2.6395654110       -2.0361959767       -2.3130215529
H                -4.0897890022       -1.1668747336       -1.8312663208
H                -3.8159209617       -2.0623772096        0.5163354446
H                -2.3723463407       -2.9380568814       -0.0056654130
H                 1.5402184129       -1.0994919280       -0.9358263482
H                 1.6739210960        1.9080393078       -1.4170902240
H                 0.9604197814        0.7657992102       -2.5439880629
H                 3.0357346438       -0.1385342324       -3.2023120380
H                 3.5211529314        1.5067171580       -2.8292759621
H                 5.1593653271        0.2645855720       -1.6517011595
H                 4.0566635925       -1.0507103865       -1.2830163773
H                 3.8186719837        1.7327294443       -0.0736676683
H                 5.8724493472        0.9114298101        0.7637242087
H                 4.6748992182        0.8123169732        2.0432679036
H                 6.1175988511       -1.1921837675        2.0740625839
H                 4.4850271561       -1.7012842848        1.6347546266
H                 5.7341884549       -1.5652641486        0.3901999973
H                 2.0532789950        0.9639911711        1.2242397275
H                 2.5460338930       -0.7244872635        1.1578574889
H                -4.7043516480        0.1621079266        0.3357823244
H                -4.1954011553       -0.0644495700        1.9983145589
H                -4.5240730122        2.4293319066        0.5264628974
H                -3.7226751835        3.6005641867        2.4585137793
H                -3.2461584652        2.0426815414        3.1287128433
H                -1.2060124098        3.0121853529        2.1309284581
H                -2.0673260808        3.4519662181        0.6690220429



