%chk=./calculation/no_transfer_pubchem_sampling_1_b3lyp/114977603.chk
%nprocshared=7
%mem=6GB
#p b3lyp/6-31g(d) opt SCF=XQC 

Gaussian input prepared by ASE

0 1
C                -0.0892603116        3.6642939394       -0.4464604310
C                -0.7224834695        2.7036705017       -0.1182263491
C                -1.4621975910        1.5184750579        0.2547906793
C                -0.9057607767        0.2694787439       -0.4847858891
N                -1.5550953501       -0.9740934217       -0.1282916070
C                -2.9303802295       -1.1291103152       -0.5580648512
C                -3.3928189062       -2.5546753079       -0.2873965426
C                 0.5636743125        0.1509445901       -0.2164294450
C                 1.1811086392       -0.0589189735        0.9785144410
C                 2.5821700622       -0.0947723642        0.8397769630
S                 3.9136952820       -0.3120967909        1.9192299636
C                 5.0279123045       -0.1490493597        0.6018902075
C                 4.4281695784        0.0600156678       -0.5970021986
C                 3.0244762831        0.0914310204       -0.4628553763
S                 1.6894938276        0.3094285483       -1.5366106726
H                 0.4613575949        4.5104246489       -0.7299498660
H                -1.3798487112        1.3644191589        1.3350214783
H                -2.5162466515        1.6544353741       -0.0013745047
H                -1.0498753127        0.4140759399       -1.5626582720
H                -1.4729966635       -1.1475091785        0.8682840979
H                -3.6228170359       -0.4244208090       -0.0648174294
H                -2.9603286808       -0.9300801766       -1.6337370960
H                -4.3962951255       -2.7048360749       -0.6766441985
H                -2.7169022702       -3.2578694017       -0.7655287054
H                -3.4009562885       -2.7564273495        0.7816424012
H                 0.6713189195       -0.1812297908        1.9166641443
H                 6.0770747334       -0.2206519014        0.8091658283
H                 4.9538128371        0.1846480238       -1.5253917700



