%chk=./calculation/no_transfer_pubchem_sampling_1_b3lyp/115550172.chk
%nprocshared=7
%mem=6GB
#p b3lyp/6-31g(d) opt SCF=XQC 

Gaussian input prepared by ASE

0 1
C                 0.8590753476        2.0834691772        1.0594184680
C                 1.4886980804        1.0238254762        0.1997193711
C                 2.7811838146        1.2421851721       -0.2689894416
C                 3.4218013136        0.3082080402       -1.0595501689
C                 2.7876440446       -0.8730216798       -1.3884470194
C                 1.4972153145       -1.1195202102       -0.9306791010
N                 0.8688882469       -2.3209968715       -1.1795689039
C                 0.8330125217       -0.1561865696       -0.1461574142
N                -0.4979002376       -0.4933235953        0.2302626103
C                -0.7314852566       -0.9417632538        1.5978729704
C                -2.0628608721       -0.3104426799        2.0164511029
C                -2.7524269007       -0.0567841592        0.6782850614
C                -1.5936952816        0.3418272628       -0.2386484430
C                -1.8712910993        0.0759998089       -1.7160276700
H                 0.1044499834        1.6724898778        1.7228484831
H                 0.3916785945        2.8491243991        0.4376985480
H                 1.6217564888        2.5709036783        1.6645016553
H                 3.2872459313        2.1595034178       -0.0039911031
H                 4.4230239685        0.4992860203       -1.4174545581
H                 3.2836408790       -1.6135551673       -1.9996278299
H                 1.1600674598       -2.8183417958       -2.0050932571
H                -0.1266729598       -2.2861888385       -1.0154291038
H                -0.8042999473       -2.0384366717        1.6069130201
H                 0.0905055433       -0.6627239001        2.2658156450
H                -1.8934232660        0.6357549119        2.5339142905
H                -2.6404197292       -0.9592269766        2.6724647520
H                -3.5193890930        0.7134790278        0.7348835727
H                -3.2070565274       -0.9788070398        0.3127469412
H                -1.3835053853        1.4173555388       -0.1224754872
H                -0.9890846010        0.3099966893       -2.3079492212
H                -2.6965341009        0.6948313505       -2.0602065897
H                -2.1298432748       -0.9689204397       -1.8735001798



