%chk=calculation/no_transfer_pubchem_sampling_1_b3lyp/115743840_rwf.chk
%rwf=calculation/no_transfer_pubchem_sampling_1_b3lyp/115743840_rwf.rwf
%nprocshared=14
%mem=3GB
#p b3lyp/6-31g(d) 6D 10F nosymm GFInput td=(50-50,nstate=2) SCF=XQC 

Gaussian input prepared by ASE

0 1
C                 1.2255357612       -2.9891081762        0.5750597530
C                 0.0921677487       -1.9992463701        0.4712186161
C                -1.2214882031       -2.3780622410        0.7419124660
C                -2.2894717419       -1.4851356585        0.6309774239
C                -2.0406184816       -0.1646559136        0.2466890423
C                -3.1036835386        0.9011740640        0.2028179811
O                -2.8597399283        2.0248921178        0.6411198801
N                -4.3518516270        0.5732957448       -0.2853303834
C                -4.6206431295       -0.4930267489       -1.2406983930
C                -5.3993791515        1.5810278235       -0.1865540315
C                -0.7241374385        0.2460806138        0.0049820687
C                 0.3449040636       -0.6534466876        0.0973592761
N                 1.6564595093       -0.2719248534       -0.2060495975
C                 2.0054975870        1.1401304560       -0.3033213254
C                 3.4668141759        1.3063724645       -0.5540271943
C                 4.1930112108        1.9429325457       -1.5216847949
C                 5.5670757902        1.7582583910       -1.1919835286
C                 5.5875053743        1.0125534435       -0.0429855954
C                 6.6472700194        0.5082313289        0.7456242114
N                 7.5341388521        0.1002538847        1.3803974304
O                 4.3033078846        0.7342594835        0.3594417240
H                 0.8514063085       -3.9896166471        0.8095123629
H                 1.7929949212       -3.0516203528       -0.3629235592
H                 1.9414649760       -2.7193905555        1.3661064657
H                -1.4135452993       -3.4032104558        1.0505984648
H                -3.2967759942       -1.8107296222        0.8704251338
H                -3.7268504278       -1.0886587595       -1.4169533089
H                -5.4200602162       -1.1533584818       -0.8790678443
H                -4.9454852765       -0.0638536163       -2.1996253503
H                -5.1687802261        2.2552636032        0.6369249150
H                -5.4784555000        2.1723051757       -1.1106411762
H                -6.3613308033        1.0865368683       -0.0087617167
H                -0.5602886899        1.2897826854       -0.2353731284
H                 2.3630527187       -0.8127674673        0.2769111939
H                 1.4706065767        1.5952666035       -1.1437762878
H                 1.7145736936        1.7024248567        0.6022114942
H                 3.7922423902        2.4773131800       -2.3713386637
H                 6.4325551115        2.1194592731       -1.7288660239



