%chk=./calculation/no_transfer_pubchem_sampling_1_b3lyp/115743840.chk
%nprocshared=7
%mem=6GB
#p b3lyp/6-31g(d) opt SCF=XQC 

Gaussian input prepared by ASE

0 1
C                 1.1949151820       -2.9269058010        0.6424960200
C                 0.0635681895       -1.9441139414        0.5585676950
C                -1.2260946775       -2.3300822553        0.8779633334
C                -2.2918189442       -1.4494819132        0.7993806175
C                -2.0642638385       -0.1432690272        0.3877260190
C                -3.1549161454        0.8778475167        0.3742543497
O                -3.0701074470        1.8929457105        1.0453584611
N                -4.2358660147        0.6158453455       -0.4006897008
C                -4.3450143305       -0.4734760271       -1.3357198885
C                -5.3566596336        1.5259482233       -0.3815165408
C                -0.7735881868        0.2705061630        0.0902583492
C                 0.2999426558       -0.6136272142        0.1647724728
N                 1.5798878506       -0.2309619627       -0.1904727532
C                 1.9450991762        1.1643835468       -0.2976249389
C                 3.4118719607        1.2967098117       -0.5323971728
C                 4.1222279756        2.1090960271       -1.3753905776
C                 5.4832978703        1.8240894173       -1.1533150912
C                 5.5101093582        0.8479559681       -0.1849951545
C                 6.6047923004        0.1945007217        0.3976036037
N                 7.5174723846       -0.3282391659        0.8556693106
O                 4.2464616316        0.5325920433        0.1916551234
H                 0.8202599216       -3.9097165505        0.9162032459
H                 1.7085235695       -3.0085794833       -0.3154377600
H                 1.9237907172       -2.6237534149        1.3965193171
H                -1.4035988353       -3.3466183981        1.1994197652
H                -3.2850436966       -1.7717171983        1.0722134128
H                -3.3915073064       -0.9851468284       -1.4387667303
H                -5.1024770728       -1.1922988972       -1.0078848324
H                -4.6447275179       -0.0842938475       -2.3128647657
H                -5.1567523817        2.2910764251        0.3660575610
H                -5.4866002787        1.9994980654       -1.3581527692
H                -6.2722939299        0.9893313382       -0.1229668772
H                -0.6240888944        1.2990861117       -0.1958160404
H                 2.3077391516       -0.8019455651        0.2139408255
H                 1.4175689519        1.6215783345       -1.1407847154
H                 1.6761352624        1.7256178654        0.6158365884
H                 3.7195735875        2.8199967900       -2.0667774238
H                 6.3321804348        2.2656240661       -1.6339943387



