%chk=calculation/no_transfer_pubchem_sampling_1_b3lyp/116746553_rwf.chk
%rwf=calculation/no_transfer_pubchem_sampling_1_b3lyp/116746553_rwf.rwf
%nprocshared=14
%mem=3GB
#p b3lyp/6-31g(d) 6D 10F nosymm GFInput td=(50-50,nstate=2) SCF=XQC 

Gaussian input prepared by ASE

0 1
C                -3.5976897900        0.5683891262        1.6699416897
C                -2.1372943028        0.1329523193        1.4806899402
C                -1.5422200476        0.1947497002        0.0463533227
C                -2.0295674858        1.4150064474       -0.7582015266
O                -1.7295855395       -1.0158424810       -0.6995222058
C                -3.0444622231       -1.5007272879       -0.8910081489
C                -0.0010637516        0.3485043392        0.1782179296
O                 0.4572685112        1.2521373566        0.8465045240
C                 0.8837182651       -0.6447645625       -0.5792995774
C                 2.3542368703       -0.3561985467       -0.4473849049
C                 3.1062401052        0.1808808047       -1.4960019718
C                 4.4628011158        0.4311879428       -1.3197965654
F                 5.1678263945        0.9480391159       -2.3506281583
C                 5.1145009409        0.1638325925       -0.1227157501
C                 4.3746296430       -0.3733644019        0.9321525292
C                 3.0209033553       -0.6189879697        0.7511571849
F                 2.3112875492       -1.1502972136        1.7744060267
H                -4.3051574567       -0.0083816357        1.0665292132
H                -3.8822142918        0.4385916389        2.7203017216
H                -3.7367963910        1.6267895172        1.4258374099
H                -1.5089474425        0.7742378106        2.1068022644
H                -1.9982620398       -0.8933968287        1.8449325315
H                -3.1124913985        1.3910126501       -0.9092899304
H                -1.5493094516        1.4352476838       -1.7424310975
H                -1.7751079250        2.3366536717       -0.2274242352
H                -2.9588043349       -2.3401245755       -1.5868045754
H                -3.7136523098       -0.7499996893       -1.3333961231
H                -3.4921025974       -1.8680316722        0.0421328602
H                 0.6350913665       -1.6443650374       -0.2031289608
H                 0.5725952760       -0.6528624146       -1.6295472019
H                 2.6449005068        0.4072477810       -2.4523381779
H                 6.1743842527        0.3723352981       -0.0251306183
H                 4.8343436269       -0.6004524796        1.8880905821



