%chk=calculation/no_transfer_pubchem_sampling_1_b3lyp/118566059_rwf.chk
%rwf=calculation/no_transfer_pubchem_sampling_1_b3lyp/118566059_rwf.rwf
%nprocshared=14
%mem=3GB
#p b3lyp/6-31g(d) 6D 10F nosymm GFInput td=(50-50,nstate=2) SCF=XQC 

Gaussian input prepared by ASE

0 1
C                -7.6275935455        0.3912120199        4.5301940612
C                -7.9348643174       -0.0751984777        3.1045242113
N                -8.2813687754        1.0564473331        2.2274930803
C                -7.1053213356        1.7584631626        1.6999222769
C                -7.3529018793        3.2392231070        1.3985878615
C                -9.3244279287        0.8293626347        1.2290869912
C                -8.9243147751       -0.1421962086        0.0907418124
O                -8.1296019596       -1.0734094858        0.2972341620
N                -9.4801956225        0.0562756187       -1.1316575074
C               -10.4498307520        1.1034438218       -1.5089040059
C               -10.6622331963        0.8757212589       -3.0128140862
C               -10.4363963350       -0.6332489986       -3.1888063388
C                -9.2822045818       -0.9411423623       -2.2220427908
C                -7.9252380690       -0.8163744750       -2.8659827751
N                -7.6688942901       -0.4903064675       -4.1223515306
C                -6.3015385398       -0.5240563101       -4.2284443808
C                -5.7103654353       -0.8717437296       -3.0232689639
C                -4.3150147002       -1.0192720434       -2.6233673409
C                -3.2971021098       -1.0607100656       -3.6247419740
C                -1.9737926467       -1.1908395202       -3.2883933483
C                -1.5651702660       -1.2938065255       -1.9293714660
C                -0.2081747166       -1.4350148033       -1.5522258823
C                 0.1761576372       -1.5403604831       -0.2234793542
C                 1.6005673836       -1.6859991012        0.1583279267
C                 1.9875270451       -2.4865072709        1.2486878856
C                 3.3228955830       -2.6350907032        1.6002233348
C                 4.3415348814       -1.9792438376        0.8845887969
C                 5.7395105889       -2.1368562026        1.2729319837
C                 6.3379895534       -2.6225372913        2.4248346380
N                 7.7045917805       -2.5607111845        2.3405063771
C                 7.9557553411       -2.0384293680        1.1516341194
C                 9.3179897228       -1.8400911216        0.5360576606
C                10.4582993732       -2.1485651593        1.5195450914
C                10.8943929559       -0.7756555876        2.0649958495
C                12.2765357415       -0.7636708186        2.7823081743
O                11.9957558749       -0.3679035906        4.1192536444
C                10.6160412847       -0.6118990047        4.3036933433
O                 9.9997143143       -0.2993850263        3.0766441411
C                10.7440842122        0.1411256252        0.8493645245
N                 9.6009033236       -0.4305114842        0.1196823948
C                 9.0227792972        0.0974222530       -0.9834065740
O                 8.1498681656       -0.5087277868       -1.6266438426
C                 9.4439035864        1.5104366271       -1.4157070155
N                 9.2254545879        1.6172710605       -2.8481780061
C                10.2444507351        1.9757517001       -3.6858658855
O                11.3136351585        2.4516627396       -3.3422356018
O                 9.8845671673        1.7509253040       -4.9765665961
C                10.8653854540        2.1356840078       -5.9479298812
C                 8.6729073767        2.6005802808       -0.6056766211
C                 7.1567511527        2.5475095381       -0.8389922353
C                 9.2353914520        3.9927064580       -0.9245895736
N                 6.8055951276       -1.7710491541        0.4717394756
C                 3.9569900010       -1.1734501838       -0.2022853777
C                 2.6195476127       -1.0331699119       -0.5557969264
C                -0.8418469143       -1.5060775341        0.7750682912
C                -2.1679666383       -1.3709257372        0.4410857129
C                -2.5757398484       -1.2620745853       -0.9161395691
C                -3.9335400067       -1.1190905724       -1.2928613793
N                -6.7809552404       -1.0568052724       -2.1679608403
C               -10.6506272783        0.4143554211        1.8713115120
C               -11.1669502259       -0.8833833433        1.7762221827
C               -12.3832768555       -1.2107518983        2.3822972557
C               -13.0956361712       -0.2457433028        3.0928568539
C               -12.5835450814        1.0503472077        3.2007615762
C               -11.3713556131        1.3749377121        2.5953242007
H                -8.4963270282        0.8982155088        4.9629807594
H                -7.3709268858       -0.4660621537        5.1643804174
H                -6.7822028192        1.0887801811        4.5624609531
H                -8.7851536336       -0.7599984531        3.1335455925
H                -7.0930762999       -0.6532235692        2.6964177285
H                -6.3261226634        1.6945884771        2.4657021260
H                -6.6956527641        1.2535401963        0.8063398938
H                -7.7371644664        3.7511874279        2.2871820729
H                -6.4167133862        3.7216822950        1.0952544581
H                -8.0695198233        3.3916995896        0.5831200862
H                -9.5041079630        1.8055976210        0.7672450879
H               -10.0543493650        2.1018998123       -1.2951466451
H               -11.3823146736        0.9789855611       -0.9436689987
H                -9.9104502939        1.4247590777       -3.5885296232
H               -11.6529810362        1.2051536197       -3.3390770123
H               -10.1799094905       -0.9042370152       -4.2138477429
H               -11.3264497439       -1.1943507285       -2.8822080988
H                -9.3690691291       -1.9372736175       -1.7740749726
H                -5.8108777329       -0.2821082752       -5.1615380023
H                -3.5830910046       -1.0015253493       -4.6704716143
H                -1.2153734566       -1.2231072907       -4.0671774265
H                 0.5420052242       -1.4888399769       -2.3373769373
H                 1.2315278754       -3.0307367614        1.8077146604
H                 3.5856496342       -3.2872009577        2.4281373782
H                 5.8513809386       -2.9936851663        3.3167357372
H                 9.3834562152       -2.4585393833       -0.3672452246
H                10.1257137896       -2.8180922993        2.3144512822
H                11.2973865194       -2.6121422696        0.9878303267
H                12.7393279438       -1.7606440494        2.7553851402
H                12.9779243900       -0.0411655230        2.3523140228
H                10.4340034100       -1.6656953869        4.5760361706
H                10.2313601142        0.0556415351        5.0776643559
H                10.5561217949        1.1670693759        1.1712200273
H                11.6511789347        0.1201696251        0.2296631818
H                10.5147061663        1.6590891212       -1.2503058436
H                 8.4944199183        1.0239331091       -3.2233165704
H                10.4237316278        1.8959205603       -6.9160973426
H                11.7952193764        1.5784231498       -5.8044028468
H                11.0797832903        3.2058291831       -5.8807012269
H                 8.8574171919        2.3921273222        0.4578264871
H                 6.7290499328        1.5801512416       -0.5573344241
H                 6.6573905750        3.3200019190       -0.2440465875
H                 6.9184686110        2.7321751963       -1.8926449380
H                 8.7378435787        4.7538720388       -0.3129682471
H                 9.0726558104        4.2465374696       -1.9774330908
H                10.3124707025        4.0491412208       -0.7326722277
H                 6.8065861792       -1.4007194796       -0.4745029969
H                 4.7066384903       -0.6243312720       -0.7663092149
H                 2.3569870402       -0.3783194745       -1.3818075465
H                -0.5554307668       -1.5601790026        1.8214114731
H                -2.9257168116       -1.3367303031        1.2205301470
H                -4.6775384810       -1.0737248866       -0.5007019541
H                -6.7925503299       -1.2974130039       -1.1799448612
H               -10.6105657871       -1.6482545698        1.2417545428
H               -12.7683653103       -2.2237763971        2.3006930251
H               -14.0418696777       -0.5001210973        3.5628343645
H               -13.1304610614        1.8082268308        3.7555958302
H               -10.9655612095        2.3789265453        2.6898901562



