%chk=./calculation/no_transfer_pubchem_sampling_1_b3lyp/118566059.chk
%nprocshared=7
%mem=6GB
#p b3lyp/6-31g(d) opt SCF=XQC 

Gaussian input prepared by ASE

0 1
C                -7.5796534239        0.5348883006        4.5236380653
C                -7.8292156581       -0.0216542452        3.1243142553
N                -7.7892467558        1.0524389861        2.1458423646
C                -6.4578620933        1.3955939438        1.6767576414
C                -6.2846407546        2.9084594082        1.5625062917
C                -8.7758519865        0.9859091531        1.0829592834
C                -8.5991329164       -0.2200095632        0.1538343615
O                -7.8700752192       -1.1646409413        0.4352060177
N                -9.2676750418       -0.1753829563       -1.0104315157
C               -10.1360211111        0.8801308382       -1.4932989786
C               -10.4523204014        0.4738875052       -2.9325002411
C               -10.3852295784       -1.0497274941       -2.8895895813
C                -9.2037208083       -1.2963248146       -1.9584630957
C                -7.8954168909       -1.2749182787       -2.6818739989
N                -7.6929455635       -1.0239798788       -3.9546526699
C                -6.3523671418       -1.0858104871       -4.1329798429
C                -5.7150933187       -1.3692494951       -2.9414139255
C                -4.3154193871       -1.4958319381       -2.5998865877
C                -3.3532503350       -1.6421711135       -3.6274376725
C                -2.0274510651       -1.7556284900       -3.3340364593
C                -1.5720068312       -1.7272640449       -1.9970844095
C                -0.2109600755       -1.8410318121       -1.6651494783
C                 0.2127782435       -1.8159348785       -0.3557784013
C                 1.6352437421       -1.9434904994       -0.0180824749
C                 2.0473145067       -2.7082284836        1.0731408938
C                 3.3832050431       -2.8361544696        1.3855771044
C                 4.3627983180       -2.1966316811        0.6219265421
C                 5.7612461016       -2.3326570305        0.9636754726
C                 6.3897369199       -2.9056863563        2.0514682177
N                 7.7325828601       -2.7845182915        1.9455980039
C                 7.9462770424       -2.1448742008        0.8197303662
C                 9.2826491513       -1.7917485241        0.2466640550
C                10.3959884956       -2.0935912791        1.2444262073
C                10.5776784497       -0.7636600923        1.9892230400
C                11.9072743947       -0.6577753594        2.7792966674
O                11.5172218113       -0.3641758145        4.1012649050
C                10.2020186068       -0.8334011773        4.2120885194
O                 9.5895044337       -0.5639020979        2.9886103214
C                10.3575617853        0.2796052893        0.8878122797
N                 9.4106090095       -0.3486635166       -0.0099562066
C                 8.7714973528        0.2389969462       -1.0289494610
O                 8.0169480173       -0.3765778194       -1.7737863658
C                 8.9902391448        1.7380146248       -1.2168900029
N                 8.8476586596        2.0568540430       -2.6172088053
C                 9.8967571940        2.5126940853       -3.3385603097
O                10.9474308844        2.8886237773       -2.8786211242
O                 9.5906518167        2.5321250596       -4.6565532576
C                10.5980519572        3.0621407622       -5.5033742687
C                 7.9714891780        2.5198452500       -0.3502062258
C                 6.5545560302        2.3817812303       -0.9022602304
C                 8.3796241052        3.9880872648       -0.2753731941
N                 6.7866479096       -1.8563788475        0.1878227735
C                 3.9493180736       -1.4270172888       -0.4682088246
C                 2.6119531829       -1.3068757701       -0.7817037666
C                -0.7475290741       -1.6663575838        0.6695682424
C                -2.0744694539       -1.5476340489        0.3772467939
C                -2.5287671268       -1.5788831267       -0.9590959290
C                -3.8902936456       -1.4654611765       -1.2880866703
N                -6.7310077811       -1.4904840643       -2.0296934403
C               -10.1667368564        1.0433526680        1.6751272598
C               -11.0035189326       -0.0649199856        1.7071328513
C               -12.2585912293        0.0206487699        2.2859243835
C               -12.6865995484        1.2114548642        2.8457887653
C               -11.8527285301        2.3173246349        2.8282115030
C               -10.6015353955        2.2330930523        2.2459036790
H                -8.3301580044        1.2850240518        4.7592104823
H                -7.6355785277       -0.2637930061        5.2590407542
H                -6.5983752350        0.9981297934        4.5881416378
H                -8.8202696360       -0.4767398221        3.1001137267
H                -7.0980074153       -0.8083087870        2.8952175148
H                -5.7347085334        1.0167576357        2.4007021559
H                -6.2314000905        0.9236759961        0.7077573163
H                -6.5190736050        3.3772635327        2.5143835670
H                -5.2584833469        3.1462277930        1.2933401848
H                -6.9414758262        3.3262684806        0.8028919642
H                -8.6289461334        1.8893352552        0.4770430403
H                -9.6397764783        1.8529082633       -1.4438743404
H               -11.0458831209        0.9268713247       -0.8827877746
H                -9.6788678677        0.8415161633       -3.6058012204
H               -11.4196137279        0.8482263838       -3.2595253196
H               -10.2051340460       -1.4813588400       -3.8699226159
H               -11.2977625400       -1.4662725100       -2.4622624892
H                -9.2807293601       -2.2334515321       -1.3932167955
H                -5.9293912565       -0.9065834174       -5.1007572952
H                -3.6903112746       -1.6722911022       -4.6520090555
H                -1.3005578399       -1.8711398154       -4.1256603979
H                 0.5055163310       -1.9741651881       -2.4635734885
H                 1.3095404360       -3.2284038860        1.6665926838
H                 3.6812219093       -3.4432739273        2.2261081367
H                 5.9597888963       -3.3912793268        2.9037416330
H                 9.4092198091       -2.3193029377       -0.7082620504
H                10.0869457091       -2.8873204224        1.9206599229
H                11.3218455881       -2.3604360842        0.7357792714
H                12.4518704877       -1.6100723360        2.7410114460
H                12.5523915316        0.1488790495        2.4286708230
H                10.1901686532       -1.9196883222        4.4244552076
H                 9.6866254779       -0.2886638799        5.0051427492
H                 9.9564639735        1.1967252727        1.3206846290
H                11.2970549822        0.4967756172        0.3663457195
H                10.0080806952        2.0258534734       -0.9394405578
H                 8.1019958442        1.5850313798       -3.1087062529
H                10.2033098109        3.0003989047       -6.5142244191
H                11.5175021125        2.4796078573       -5.4151341268
H                10.8132413775        4.0995342843       -5.2388524183
H                 7.9930558720        2.0887378436        0.6570735217
H                 6.3047166115        1.3376576689       -1.0707763520
H                 5.8379669287        2.7947485615       -0.1964414071
H                 6.4591757612        2.9194241671       -1.8422748645
H                 7.6534434283        4.5522465356        0.3046896385
H                 8.4311399192        4.4116772309       -1.2752373433
H                 9.3559121215        4.0967689036        0.1908719670
H                 6.7383618243       -1.4031915554       -0.7152986351
H                 4.6766873831       -0.9093767620       -1.0768369580
H                 2.3144059983       -0.6919624437       -1.6187457226
H                -0.4121469615       -1.6242032465        1.6956549311
H                -2.8009157645       -1.4261504459        1.1685680836
H                -4.5980416437       -1.3420516293       -0.4799995075
H                -6.6757359663       -1.6763516704       -1.0355652928
H               -10.6734833347       -1.0029577818        1.2831484860
H               -12.9005952485       -0.8479154953        2.3031569191
H               -13.6648803311        1.2762830601        3.2984955009
H               -12.1795307395        3.2473569202        3.2697463424
H                -9.9449941074        3.0901593293        2.2374560316



