%chk=./calculation/no_transfer_pubchem_sampling_1_b3lyp/118913812.chk
%nprocshared=7
%mem=6GB
#p b3lyp/6-31g(d) opt SCF=XQC 

Gaussian input prepared by ASE

0 1
C                -8.2056553448        3.5794942958       -3.9515423061
O                -7.1654465139        2.6332444313       -3.9387790431
C                -6.2102685419        2.7265809365       -2.9728726796
C                -5.2114951690        1.7510268458       -3.0051943243
C                -4.1890550042        1.7646597761       -2.0832142232
C                -4.1342773794        2.7497417518       -1.0991889637
C                -2.9956322098        2.7888261775       -0.1175633254
O                -3.0481532268        1.7475334831        0.8705823939
C                -2.3971901593        0.6281978303        0.6061361500
O                -1.9359337895        0.3269805269       -0.4663626004
C                -2.3063230290       -0.3167882190        1.8164836292
C                -2.6115544815        0.3870606980        3.1395762969
C                -2.4879599920       -0.5423524424        4.3473362588
C                -3.4918733007       -1.6980170680        4.3825666111
C                -4.9658007053       -1.2572914300        4.4052245222
N                -5.3560547037       -0.4261249527        5.5280168790
N                -0.9622723915       -0.8734377992        1.8124945768
C                 0.0574679798       -0.0070319433        1.5069277041
O                -0.1194200678        1.1947404532        1.4921299528
N                 1.2767906376       -0.6167106919        1.3257890692
C                 2.3111339866       -0.0129652804        0.4769928963
C                 2.7506697833        1.3416622830        1.0137573636
C                 3.4786886624       -1.0032943251        0.3773529701
C                 4.1178987248       -1.3101210755        1.7376242791
C                 4.9148724870       -2.5901715064        1.6177760639
O                 4.4756256301       -3.6893298099        1.8222461104
O                 6.1597536274       -2.3184513291        1.2052589250
C                 7.0841101515       -3.3368916954        0.9805048292
C                 7.8865602314       -3.2209860676       -0.1428701365
C                 8.8615506752       -4.1662275520       -0.4068513185
C                 9.0373987373       -5.2430180139        0.4567155804
O                 9.9595218774       -6.2290650108        0.2959621164
C                10.8027690096       -6.1873560105       -0.8301478156
C                 8.2246855154       -5.3470972370        1.5870477645
C                 7.2563066273       -4.4032789151        1.8533173221
C                 1.6280103142        0.0659911063       -0.9111894758
O                 1.4596816936       -0.9270691604       -1.5764267149
O                 1.2123360369        1.2877446226       -1.1845398162
C                 0.2967571976        1.6174670540       -2.1763523501
C                -0.2642451136        0.7344140751       -3.0900137072
C                -1.2181340986        1.1924136049       -3.9737546689
C                -1.6345890914        2.5240246655       -3.9666933562
O                -2.6043758191        2.8519772366       -4.8623169417
C                -3.1636026697        4.1407464976       -4.8041890804
C                -1.0458352420        3.4081393506       -3.0683993287
C                -0.0864231841        2.9521449539       -2.1820749929
C                -5.1349986196        3.7077539311       -1.0621528311
C                -6.1657059450        3.7068997848       -1.9883122618
H                -7.8249929548        4.5952268619       -4.1025637137
H                -8.7928805412        3.5453734140       -3.0281044016
H                -8.8423181941        3.3065216361       -4.7916696444
H                -5.2550726169        0.9982359922       -3.7754336771
H                -3.4157873829        1.0136800491       -2.1232185694
H                -2.0415342840        2.6981181574       -0.6477055732
H                -3.0164075986        3.7151815252        0.4609885741
H                -3.0153158600       -1.1320558352        1.6441910044
H                -1.9004340393        1.2063906743        3.2495104165
H                -3.6113803457        0.8153233083        3.0806106736
H                -2.6033875120        0.0588593171        5.2527679348
H                -1.4788693972       -0.9594565169        4.3649337853
H                -3.3396561345       -2.3518146034        3.5224509840
H                -3.2941453361       -2.2923683673        5.2797067307
H                -5.2075071312       -0.7099484382        3.4911598921
H                -5.5950203321       -2.1525224041        4.4312795123
H                -4.8518486688        0.4535034443        5.5074593998
H                -5.1319691561       -0.8908167167        6.4020886284
H                -0.8616074077       -1.8437214882        1.5632831938
H                 1.2397022099       -1.6224217244        1.2225638553
H                 3.5166733518        1.7628258244        0.3682494646
H                 1.9013160207        2.0155494807        1.0536121931
H                 3.1454530600        1.2255702690        2.0189150622
H                 4.2306177449       -0.5956807118       -0.2996345379
H                 3.1010751172       -1.9277727061       -0.0678713159
H                 4.7796312025       -0.5000086790        2.0392802603
H                 3.3385227585       -1.4553803703        2.4856081669
H                 7.7434859770       -2.3843420704       -0.8087491369
H                 9.4715981005       -4.0513263146       -1.2883585727
H                11.4267446957       -5.2878048056       -0.8323799946
H                11.4404361125       -7.0664237413       -0.7523343798
H                10.2313453939       -6.2370686933       -1.7624542200
H                 8.3739568254       -6.1846657043        2.2491488605
H                 6.6344299318       -4.4959684967        2.7285935172
H                 0.0229343392       -0.3027977744       -3.0963503364
H                -1.6760962170        0.5188894168       -4.6802026999
H                -2.4297639805        4.9112708857       -5.0637914421
H                -3.9650716623        4.1456975789       -5.5411787636
H                -3.5815953001        4.3492660149       -3.8139661646
H                -1.3344206831        4.4466351250       -3.0358475033
H                 0.3632411919        3.6243516402       -1.4677576642
H                -5.1123516711        4.4776891426       -0.3041948865
H                -6.9220444197        4.4738165679       -1.9294569146



