%chk=calculation/no_transfer_pubchem_sampling_1_b3lyp/118913812_rwf.chk
%rwf=calculation/no_transfer_pubchem_sampling_1_b3lyp/118913812_rwf.rwf
%nprocshared=14
%mem=3GB
#p b3lyp/6-31g(d) 6D 10F nosymm GFInput td=(50-50,nstate=2) SCF=XQC 

Gaussian input prepared by ASE

0 1
C                -9.2848706850       -3.0241067319       -2.3628107528
O                -7.8802375023       -3.0445891966       -2.5637026204
C                -7.1650113080       -1.9265428047       -2.2511688317
C                -5.7810380580       -2.0085326626       -2.4712606013
C                -4.9634572360       -0.9238756645       -2.1866422603
C                -5.5008816795        0.2708480292       -1.6778046582
C                -4.6169683152        1.4448410247       -1.3575397249
O                -4.1707110918        1.4343046761        0.0372951783
C                -3.0327487162        0.7701926260        0.3043264587
O                -2.3538571041        0.1966744859       -0.5208157337
C                -2.7221553987        0.7756033230        1.8126684187
C                -2.8728787872        2.1704413692        2.4581097189
C                -2.5250344891        2.2147042640        3.9544904795
C                -3.3543817199        1.2999768732        4.8711608096
C                -4.8660818632        1.6002044809        4.9140835821
N                -5.2637596340        2.9296084280        5.3905935152
N                -1.4404534627        0.1225296913        2.0592446415
C                -0.2380721674        0.6836276846        1.6667316436
O                -0.0336824664        1.8933162148        1.6237408322
N                 0.7569190066       -0.2687894661        1.4260831257
C                 2.1081884203        0.2008563120        1.0769956133
C                 2.7663644657        0.8708482839        2.2919262569
C                 2.9210505865       -1.0269599858        0.5865856746
C                 3.1310830026       -2.1234908267        1.6494113564
C                 3.7599048995       -3.3685654505        1.0583128149
O                 3.2369806746       -4.4536474200        0.9849061025
O                 5.0202689160       -3.0834890427        0.6053172973
C                 5.7864794050       -4.0735305913       -0.0238920640
C                 6.3676493457       -3.7383478550       -1.2393430746
C                 7.2118526172       -4.6437694939       -1.8883372407
C                 7.4653522989       -5.8912569472       -1.3075412591
O                 8.2687520708       -6.8533242086       -1.8499722253
C                 8.8871400964       -6.5839501495       -3.0973596546
C                 6.8734993600       -6.2166964334       -0.0774322932
C                 6.0385467810       -5.3137258878        0.5676786152
C                 2.0006658619        1.1370993356       -0.1508202705
O                 1.3137983029        0.8875433486       -1.1101893750
O                 2.8257385404        2.2148531234       -0.0473744717
C                 2.7515031214        3.2098340513       -1.0316623027
C                 3.8977796634        3.4953665045       -1.7698253540
C                 3.8759300216        4.5339241985       -2.6936467519
C                 2.7068021130        5.2843289827       -2.8839343986
O                 2.7888482378        6.2800338430       -3.8171877722
C                 1.6356691431        7.0687413675       -4.0572996744
C                 1.5612764888        4.9883608495       -2.1340952869
C                 1.5873352118        3.9484616651       -1.2021579513
C                -6.8799584337        0.3385878369       -1.4651072036
C                -7.7171875956       -0.7436581184       -1.7445614724
H                -9.7691025209       -2.2518178647       -2.9749583408
H                -9.5394833313       -2.8596935699       -1.3074630152
H                -9.6452686367       -4.0069651769       -2.6715867827
H                -5.3739619604       -2.9332812940       -2.8681674132
H                -3.8923413675       -0.9971378891       -2.3491779595
H                -3.7315290667        1.4716047401       -1.9948727459
H                -5.1613946257        2.3874721213       -1.4428011938
H                -3.4780696266        0.1194715299        2.2637766603
H                -2.2294809280        2.8762374347        1.9292971513
H                -3.9085081687        2.4838456370        2.2893845957
H                -2.6375120709        3.2551757058        4.2903709652
H                -1.4628432664        1.9769150790        4.0728619884
H                -3.2085998942        0.2491540815        4.5814745415
H                -2.9553963325        1.3812422306        5.8931790608
H                -5.3087141219        1.4661899547        3.9184189143
H                -5.3538571492        0.8602180046        5.5615583598
H                -4.8831920133        3.6488138243        4.7773862347
H                -4.8538361657        3.1006026456        6.3088633900
H                -1.4745230519       -0.8864536081        1.9863290601
H                 0.4346446031       -1.0257551030        0.8308777450
H                 3.8088439073        1.1198175305        2.0759733881
H                 2.2390920291        1.7887522660        2.5527410638
H                 2.7325306890        0.1931709170        3.1498526243
H                 3.8963222669       -0.6762528261        0.2336535235
H                 2.4039647704       -1.4464191587       -0.2861861017
H                 3.7854668967       -1.7515592151        2.4452821121
H                 2.1820634498       -2.4227259483        2.0990650307
H                 6.1624434042       -2.7662310223       -1.6766352212
H                 7.6575105081       -4.3642039604       -2.8357281868
H                 9.5603048943       -5.7182012190       -3.0366546709
H                 9.4683003624       -7.4748505787       -3.3422760740
H                 8.1444850593       -6.4075754873       -3.8869708726
H                 7.0833042021       -7.1888302794        0.3570106588
H                 5.5803263647       -5.5715826730        1.5146828680
H                 4.7969866412        2.9077497725       -1.6131909036
H                 4.7541608676        4.7809785516       -3.2814053309
H                 1.3216222120        7.6123309982       -3.1559821590
H                 1.9189374413        7.7866192685       -4.8294409623
H                 0.7967597257        6.4595064160       -4.4197107025
H                 0.6475824109        5.5570289837       -2.2619241110
H                 0.7112672979        3.7101779382       -0.6084004707
H                -7.3181275854        1.2545539227       -1.0745593254
H                -8.7831300591       -0.6529576157       -1.5701282472



