%chk=calculation/no_transfer_pubchem_sampling_1_b3lyp/120112038_rwf.chk
%rwf=calculation/no_transfer_pubchem_sampling_1_b3lyp/120112038_rwf.rwf
%nprocshared=14
%mem=3GB
#p b3lyp/6-31g(d) 6D 10F nosymm GFInput td=(50-50,nstate=2) SCF=XQC 

Gaussian input prepared by ASE

0 1
C                 4.5494127341        1.9427366003        0.1811012649
C                 3.8037164616        0.6759649071       -0.2543641092
C                 4.7546070083       -0.5265709207       -0.3898470362
C                 4.0095491938       -1.8059445614       -0.7964092014
C                 2.8522740523       -2.1168849499        0.1641382513
C                 1.8831286837       -0.9274528238        0.2992056645
C                 0.7370747663       -1.2683836388        1.2860193345
C                -0.3465665760       -0.1895387290        1.3385508706
O                -0.2479449797        0.7086598469        2.1662426685
N                -1.3769986506       -0.2528323884        0.3986063742
C                -1.5167164973       -1.4867534014       -0.4108986079
C                -2.6758852597       -1.4250480785       -1.3941835619
C                -3.9459335984       -0.9771461974       -0.6700482806
C                -3.6967447212        0.3962034761       -0.0936209053
C                -4.7185836767        1.3678716884       -0.1006009597
N                -6.0083284304        1.0208193511       -0.5550792490
C                -4.4366070056        2.6855864798        0.2768835583
C                -3.1416162687        3.0318654815        0.6478215864
C                -2.1249496823        2.0836263923        0.6920712827
C                -2.4031148736        0.7507391781        0.3449779369
C                 2.6514101473        0.3425805434        0.7110103266
H                 5.0075220388        1.8081641019        1.1695309072
H                 5.3496326482        2.1964630729       -0.5248179666
H                 3.8713058373        2.8020261587        0.2444190644
H                 3.3643661321        0.8659788456       -1.2475277526
H                 5.2590227569       -0.6906868224        0.5750721293
H                 5.5447627269       -0.3011242579       -1.1186051429
H                 3.6105344797       -1.6847536483       -1.8144882933
H                 4.7038362108       -2.6551589434       -0.8350876409
H                 2.3082245124       -3.0089396798       -0.1757711968
H                 3.2575670587       -2.3590264468        1.1584689519
H                 1.4426877983       -0.7443919724       -0.6944226433
H                 0.3394930997       -2.2602709565        1.0510205760
H                 1.1435994876       -1.3130936834        2.3010887543
H                -0.5837274461       -1.6671988337       -0.9535900583
H                -1.6785075761       -2.3411797672        0.2597608906
H                -2.4545591978       -0.7203042646       -2.2045336929
H                -2.7951893400       -2.4171867236       -1.8451873756
H                -4.7855980589       -0.9373208085       -1.3719618335
H                -4.2087521676       -1.7158819602        0.1044517976
H                -6.3454043965        0.1304794052       -0.2064148690
H                -6.6950764724        1.7417673378       -0.3630616014
H                -5.2293494898        3.4305724065        0.2703442060
H                -2.9190030231        4.0586510983        0.9259006346
H                -1.1361904963        2.3643918563        1.0175219011
H                 1.9655110346        1.1936681631        0.7876315664
H                 3.0621120154        0.1942590671        1.7220634793



