%chk=calculation/no_transfer_pubchem_sampling_1_b3lyp/121586153_rwf.chk
%rwf=calculation/no_transfer_pubchem_sampling_1_b3lyp/121586153_rwf.rwf
%nprocshared=14
%mem=3GB
#p b3lyp/6-31g(d) 6D 10F nosymm GFInput td=(50-50,nstate=2) SCF=XQC 

Gaussian input prepared by ASE

0 1
C                -6.9591142232        0.0851206964        0.5654158598
C                -6.2245956005        0.7301979941       -0.6110447067
C                -6.5520636068        2.2205053562       -0.7685072243
N                -4.7700326454        0.5357528434       -0.5041042468
C                -3.9903567342        0.4963970886        0.5973661235
C                -2.6708504974        0.3852125718        0.1725809031
C                -1.5475538156        0.3839911664        1.1453062604
O                -1.7318289297        0.8155180188        2.2869661084
N                -0.3106433131       -0.0768579478        0.7599669808
C                -0.0412734068       -0.8736383006       -0.4392134766
C                 1.0125743002       -1.9445867540       -0.1366737047
C                 2.3721686674       -1.3495823412        0.3177774951
O                 2.9580384637       -2.2077552956        1.3118551095
C                 3.3255778603       -1.2115653215       -0.8986006122
C                 4.6167964491       -0.4547518784       -0.6607162853
C                 4.8716796082        0.7419716658       -1.3452041195
C                 6.0627285668        1.4439734126       -1.1478871085
C                 7.0270912778        0.9657442826       -0.2620104904
C                 6.7613986713       -0.2216265114        0.4114095062
F                 7.6852655936       -0.7003112457        1.2737864471
C                 5.5860325561       -0.9376468127        0.2310351551
C                 2.1330860932        0.0011552278        1.0210491793
C                 0.7844623957        0.0577646246        1.7351614731
C                -2.7774005449        0.3916855661       -1.2435419430
N                -4.0405043625        0.4881771709       -1.6487851394
H                -6.7441934491        0.5985827211        1.5092871282
H                -6.6899987406       -0.9703348292        0.6740984947
H                -8.0387919327        0.1487524746        0.3967359795
H                -6.4967530367        0.2092695159       -1.5339887852
H                -6.2791815262        2.7773022329        0.1352333230
H                -7.6248609954        2.3556796570       -0.9454222533
H                -6.0036136694        2.6424120007       -1.6155325747
H                -4.3775227623        0.5484801443        1.6029802648
H                -0.9657974434       -1.3559922216       -0.7626530462
H                 0.3010227189       -0.2380018598       -1.2718307707
H                 1.1436428942       -2.5844412738       -1.0193874659
H                 0.6357468012       -2.5778930475        0.6749695923
H                 2.9685818893       -3.1099911157        0.9518880338
H                 2.7750545686       -0.7237520069       -1.7133671870
H                 3.5501937647       -2.2293204620       -1.2523626682
H                 4.1329482256        1.1254454250       -2.0446287900
H                 6.2421357069        2.3687207664       -1.6893011392
H                 7.9629592582        1.4866863093       -0.0892874005
H                 5.4214007121       -1.8456039111        0.7987414747
H                 2.9421357671        0.1654716279        1.7385136876
H                 2.1866067526        0.8142512695        0.2871292025
H                 0.7216270554       -0.7296824787        2.4986066001
H                 0.6501112871        1.0085835738        2.2541821863
H                -1.9941366696        0.3505302109       -1.9877444310



