%chk=./calculation/no_transfer_pubchem_sampling_1_b3lyp/121586153.chk
%nprocshared=7
%mem=6GB
#p b3lyp/6-31g(d) opt SCF=XQC 

Gaussian input prepared by ASE

0 1
C                -6.5679072628        1.5069372620        0.2752189762
C                -5.7298539212        0.8452607189       -0.8171145446
C                -5.2544534225        1.8594296607       -1.8560048199
N                -4.6033497514        0.1529257781       -0.2343947950
C                -3.5803722474        0.6726775291        0.4687871774
C                -2.7497040205       -0.3740334654        0.8168760393
C                -1.5521617688       -0.2977704187        1.6854086470
O                -1.6196619352        0.1629094473        2.8126320508
N                -0.3939480743       -0.7810992474        1.1722672541
C                -0.2016194864       -1.1428096549       -0.2161208804
C                 0.9952864420       -2.0772655425       -0.3469647632
C                 2.3113216267       -1.3917741407        0.0865361896
O                 3.1683025853       -2.3336945669        0.6994215589
C                 3.0000432498       -0.7571479949       -1.1487314783
C                 4.1950509168        0.0677214812       -0.7699356733
C                 4.1238746766        1.4557536712       -0.7382826874
C                 5.2156269915        2.2165849541       -0.3590272411
C                 6.4051433472        1.6066056455       -0.0021150227
C                 6.4662086742        0.2263017467       -0.0414094145
F                 7.6221155929       -0.3874641320        0.2923129902
C                 5.3886942005       -0.5503930594       -0.4201932977
C                 2.0076951299       -0.3280431135        1.1535111640
C                 0.8049917145       -0.7330074504        1.9921302238
C                -3.3946597716       -1.5071387882        0.2827652475
N                -4.5012589289       -1.1660859624       -0.3446083557
H                -5.9975042759        2.2838905300        0.7784986201
H                -6.8742849053        0.7694216573        1.0128405217
H                -7.4569677638        1.9553161200       -0.1595944102
H                -6.3182979739        0.0632542538       -1.3087594825
H                -4.6740772181        2.6488423800       -1.3843531863
H                -6.1103536727        2.3095242452       -2.3511607969
H                -4.6360089937        1.3718998939       -2.6060155075
H                -3.4882173586        1.7192898876        0.6730450399
H                -1.0975245675       -1.6361182984       -0.5957094528
H                -0.0352216667       -0.2405763232       -0.8237848290
H                 1.0692129285       -2.4291962876       -1.3780048476
H                 0.8321247847       -2.9439679316        0.2969889700
H                 3.3458792338       -3.0509477314        0.0803181598
H                 2.2707491880       -0.1382261324       -1.6728987051
H                 3.3088685193       -1.5644801241       -1.8191977512
H                 3.2060943092        1.9501393249       -1.0216089872
H                 5.1415532713        3.2933326893       -0.3417390678
H                 7.2693450328        2.1776604273        0.2967125484
H                 5.4887771470       -1.6236604882       -0.4298007668
H                 2.8849014207       -0.2323963157        1.7922310861
H                 1.8169452532        0.6357471006        0.6827899348
H                 0.9862655841       -1.7128242444        2.4480064437
H                 0.6214145796       -0.0131052965        2.7931187348
H                -3.1090774132       -2.5381996937        0.3553601866



