%chk=./calculation/no_transfer_pubchem_sampling_1_b3lyp/122220503.chk
%nprocshared=7
%mem=6GB
#p b3lyp/6-31g(d) opt SCF=XQC 

Gaussian input prepared by ASE

0 1
N                 5.2123386213        1.2359845271        0.0292304771
N                 4.5066557916        0.3670631886        0.1007373057
N                 4.0259574350       -0.7122615672        0.2577730882
C                 2.6804099652       -1.1176166381        0.0439827219
C                 1.7050855261        0.0681073087        0.0992143696
O                 2.1011576967        1.2019020707        0.1919093062
N                 0.3889649143       -0.2861401516        0.0183610266
C                -0.1119812246       -1.6524771204       -0.1068347441
C                -1.6440012621       -1.5395113938       -0.2376304231
C                -1.8931981563       -0.0716998664       -0.0885773787
C                -3.0574041437        0.6602309062       -0.0755092619
C                -2.9466094684        2.0415920205        0.0768658217
C                -1.6891942368        2.6061529861        0.2049420579
N                -0.5592476059        1.9097860667        0.1939666230
C                -0.6773104311        0.6104704547        0.0503739352
H                 2.4358122021       -1.8533301137        0.8167047970
H                 2.5933741351       -1.6085201464       -0.9367551492
H                 0.1645220055       -2.2317742784        0.7799745456
H                 0.3282277064       -2.1359483767       -0.9833267557
H                -1.9920658836       -1.8972422329       -1.2085058753
H                -2.1592116856       -2.1139340097        0.5334016816
H                -4.0214578990        0.1835706017       -0.1792844673
H                -3.8276586601        2.6627965682        0.0945880861
H                -1.5631663421        3.6727991960        0.3244012117



