%chk=calculation/no_transfer_pubchem_sampling_1_b3lyp/12325334_rwf.chk
%rwf=calculation/no_transfer_pubchem_sampling_1_b3lyp/12325334_rwf.rwf
%nprocshared=14
%mem=3GB
#p b3lyp/6-31g(d) 6D 10F nosymm GFInput td=(50-50,nstate=2) SCF=XQC 

Gaussian input prepared by ASE

0 1
C                -1.9015651565        0.9701759921        1.4279706829
C                -1.9757077002        0.7560718228       -0.0883571507
C                -3.4296629050        0.5632954143       -0.5642359621
O                -3.4588585655       -0.0333732405       -1.8446015725
C                -3.0955896969       -1.4043929100       -1.7682867605
C                -1.8619855630       -1.6708297894       -0.8498724073
C                -2.2041144763       -2.4477847560        0.4289325179
N                -1.1742889542       -0.3929894016       -0.5777712155
C                 0.1537754234       -0.3136025583       -0.8608658130
O                 0.8127790129       -1.2961883372       -1.2398208445
C                 0.8428939216        1.0272981884       -0.7748958690
C                 0.6865835477        1.9008597818       -1.8625203707
C                 1.3669645197        3.1146070162       -1.9078663141
C                 2.2041192397        3.4764731051       -0.8508280994
C                 2.3564106562        2.6197239942        0.2354820241
C                 1.7014234646        1.3787279784        0.2806633609
C                 1.9224864701        0.5784588551        1.5567419820
O                 1.5019590155        1.0346319518        2.6114488072
C                 2.7533414707       -0.6363426343        1.5197747443
N                 3.3787589929       -1.1490947425        2.5796515449
C                 4.0777720419       -2.2134374467        2.1048559434
C                 3.8737960996       -2.3645539654        0.7419914732
N                 3.0532770361       -1.3414480041        0.3768793820
H                -2.2577885599        0.0916017140        1.9751123331
H                -2.5365044329        1.8208743516        1.7058731101
H                -0.8849581689        1.1909886450        1.7631859289
H                -1.5850232780        1.6451714189       -0.5874179495
H                -4.0060163707       -0.0373065679        0.1589032628
H                -3.9184394104        1.5379996583       -0.6477109625
H                -3.9520702713       -1.9983541523       -1.4092126297
H                -2.8798145532       -1.7066932096       -2.7967277208
H                -1.1358430843       -2.2636601403       -1.4065413816
H                -2.6075060276       -3.4318751787        0.1626350316
H                -1.3054641952       -2.6023518363        1.0340160185
H                -2.9532905886       -1.9399980173        1.0449939481
H                 0.0237374079        1.6176759687       -2.6762623488
H                 1.2403006238        3.7748806958       -2.7611317075
H                 2.7322157337        4.4256305411       -0.8691865576
H                 2.9910471215        2.9045520324        1.0693809173
H                 4.6984518607       -2.8178266890        2.7533903585
H                 4.2279082176       -3.0971949926        0.0315649889
H                 2.5244910814       -1.2703985560       -0.4983827238



