%chk=./calculation/no_transfer_pubchem_sampling_1_b3lyp/12325334.chk
%nprocshared=7
%mem=6GB
#p b3lyp/6-31g(d) opt SCF=XQC 

Gaussian input prepared by ASE

0 1
C                -1.9888571593        1.0006561806        1.3751429608
C                -1.9821761093        0.7720627746       -0.1358657576
C                -3.4094657920        0.6348958827       -0.7013834970
O                -3.3984011916       -0.0960317601       -1.9005626694
C                -3.1288146454       -1.4574057572       -1.6617254589
C                -1.9206481543       -1.6708613913       -0.7156735103
C                -2.3200547490       -2.3113105922        0.6132625137
N                -1.2218813373       -0.4069148234       -0.5295883871
C                 0.0884403499       -0.3638170568       -0.8112559698
O                 0.7352032882       -1.3547377853       -1.1430467028
C                 0.7875485853        0.9584467983       -0.7419191476
C                 0.7121846377        1.8267834927       -1.8267766758
C                 1.4453417097        2.9989081035       -1.8334397536
C                 2.2645784139        3.3088260397       -0.7598025761
C                 2.3541098935        2.4442864427        0.3155956260
C                 1.6267744372        1.2590423145        0.3271653412
C                 1.7454518268        0.3793270672        1.5437199269
O                 1.0823921635        0.5895930596        2.5363039390
C                 2.7650154674       -0.6601517172        1.4387980545
N                 3.5367579605       -1.0822717506        2.4234150903
C                 4.3678221870       -1.9886525753        1.8813807731
C                 4.0918418622       -2.1415918466        0.5418033658
N                 3.0940550203       -1.2727961995        0.2627022833
H                -2.5138758043        0.2056939426        1.8957299778
H                -2.4884617970        1.9420486812        1.5897123342
H                -0.9760105116        1.0506853509        1.7655430573
H                -1.5055925633        1.6351179480       -0.6119714240
H                -4.0714133059        0.1510704104        0.0316037187
H                -3.8158798347        1.6190117908       -0.9398621774
H                -4.0184966586       -1.9399073122       -1.2280510066
H                -2.9393579414       -1.8910602702       -2.6449425690
H                -1.1922719538       -2.3290264714       -1.2010856220
H                -2.6269971018       -3.3395135919        0.4378483603
H                -1.4698700122       -2.3150491983        1.2913562671
H                -3.1448969680       -1.7843755171        1.0857355171
H                 0.0770786508        1.5732798440       -2.6635939352
H                 1.3788432271        3.6689927841       -2.6771241288
H                 2.8366029261        4.2241640350       -0.7616300876
H                 2.9904694693        2.6770941059        1.1562007996
H                 5.1133907734       -2.4772527896        2.4758674800
H                 4.5209256784       -2.7823872215       -0.2008543135
H                 2.5185960629       -1.2548694214       -0.5777800168



