%chk=./calculation/no_transfer_pubchem_sampling_1_b3lyp/124675872.chk
%nprocshared=7
%mem=6GB
#p b3lyp/6-31g(d) opt SCF=XQC 

Gaussian input prepared by ASE

0 1
C                 4.7872097835        1.9747428644        1.4493023974
C                 3.7742619813        1.0685242734        0.8168207478
C                 3.0777238739        0.1376361882        1.5789302005
C                 2.1613238665       -0.7141987538        0.9936167398
C                 1.9091339347       -0.6540114970       -0.3715235573
C                 0.9039071209       -1.5876764872       -0.9907082515
N                -0.3316868489       -1.5992998342       -0.2333476499
C                -1.2477232626       -2.6873592136       -0.5382691898
C                -2.5446285547       -2.2271149835       -1.2007932957
N                -3.2383972534       -1.2782417588       -0.3414164756
C                -2.3590067889       -0.5410801323        0.5590016968
C                -3.0007974702        0.7808791722        1.0048560539
C                -2.4576055415        1.9908037295        0.2387125773
C                -2.1725139401        1.6228005275       -1.2120046206
C                -1.0315691960        0.6025327471       -1.2938760470
C                -0.9643788188       -0.3018729254       -0.0406162623
C                 2.6026946665        0.2735148258       -1.1342740396
C                 3.5257490295        1.1215774626       -0.5476303115
H                 4.8685178389        2.9103349611        0.9005192688
H                 5.7674525185        1.4964518437        1.4468330203
H                 4.5224889788        2.1923409686        2.4816058497
H                 3.2581753122        0.0807661530        2.6433216797
H                 1.6210922971       -1.4324692794        1.5917570004
H                 1.3112655638       -2.6049751465       -0.9528771092
H                 0.7650988293       -1.3268587414       -2.0550097391
H                -1.5036888051       -3.1980685309        0.3994614603
H                -0.7532787448       -3.4128762774       -1.1880831529
H                -2.3131304494       -1.8122961651       -2.1943224969
H                -3.2014805882       -3.0923569647       -1.3536385309
H                -3.7909600357       -0.6431284251       -0.9046784083
H                -2.2228325316       -1.1796548090        1.4425122879
H                -4.0796191781        0.6983903973        0.8575028992
H                -2.8310046801        0.9276868112        2.0722172176
H                -3.1806888293        2.8074893651        0.2864207035
H                -1.5324896353        2.3419877178        0.6999945654
H                -1.9029126872        2.5160617903       -1.7798993818
H                -3.0831310109        1.2202521330       -1.6626578228
H                -1.1484040367        0.0008474565       -2.1964634624
H                -0.0788550126        1.1299542294       -1.3780008788
H                -0.3655985263        0.2255235108        0.7152800218
H                 2.4234412371        0.3346524929       -2.1991804756
H                 4.0568435936        1.8377873037       -1.1590482288



