%chk=calculation/no_transfer_pubchem_sampling_1_b3lyp/124706804_rwf.chk
%rwf=calculation/no_transfer_pubchem_sampling_1_b3lyp/124706804_rwf.rwf
%nprocshared=14
%mem=3GB
#p b3lyp/6-31g(d) 6D 10F nosymm GFInput td=(50-50,nstate=2) SCF=XQC 

Gaussian input prepared by ASE

0 1
C                -1.3297268856        2.2581376486        0.0461212195
C                -1.5963157804        0.7686485390        0.1059796871
C                -2.9115616365        0.3025335228       -0.0165086528
C                -3.2143392070       -1.0579208927        0.0311496004
C                -2.1875836820       -1.9847557522        0.2017661180
C                -0.8723329019       -1.5385961127        0.3247383278
C                -0.5606653642       -0.1741413241        0.2813963111
C                 0.8890266173        0.2702652999        0.3854145397
C                 1.6647571752        0.2422123535       -0.9661668256
C                 3.1235612255       -0.0186714838       -0.5613528166
C                 3.0212090294       -0.7437961540        0.7848570710
O                 3.9109899705       -1.3125383426        1.3912990956
N                 1.7178606394       -0.6127280365        1.2025125856
H                -0.8916075122        2.6364820555        0.9788604002
H                -2.2599336228        2.8085682218       -0.1237182379
H                -0.6391173268        2.5246339398       -0.7631939910
H                -3.7132434989        1.0254313318       -0.1497976968
H                -4.2452304763       -1.3884054711       -0.0638104498
H                -2.4056039667       -3.0486404349        0.2407390657
H                -0.0675223717       -2.2554076858        0.4618387030
H                 0.9218570679        1.2898175102        0.7953595114
H                 1.5198525273        1.1647624199       -1.5350431895
H                 1.2834344628       -0.5877219471       -1.5699361551
H                 3.6919095237       -0.6162122048       -1.2786731434
H                 3.6811237705        0.9125972139       -0.3971669935
H                 1.4692032229       -0.8645542146        2.1506099160



