%chk=./calculation/no_transfer_pubchem_sampling_1_b3lyp/124706804.chk
%nprocshared=7
%mem=6GB
#p b3lyp/6-31g(d) opt SCF=XQC 

Gaussian input prepared by ASE

0 1
C                -1.3632156065        2.2635917682        0.0434918655
C                -1.5881203423        0.7815506010        0.1099358142
C                -2.8776247928        0.2781351968       -0.0081525835
C                -3.1285562621       -1.0810087422        0.0372670889
C                -2.0780556102       -1.9667691709        0.1969148404
C                -0.7897614491       -1.4808243906        0.3171263551
C                -0.5320648335       -0.1156642937        0.2849244247
C                 0.8962606634        0.3582058223        0.4008068929
C                 1.6477326405        0.2875319883       -0.9470509823
C                 3.0729117507       -0.1095713525       -0.5692473316
C                 2.9259182386       -0.8059019566        0.7772790182
O                 3.7454983112       -1.4877756585        1.3448003347
N                 1.6986046995       -0.5009520772        1.2440748709
H                -0.9618962491        2.6381682548        0.9850938758
H                -2.2997830036        2.7788783094       -0.1533085727
H                -0.6602987287        2.5147859770       -0.7489362366
H                -3.7003531348        0.9663269798       -0.1400875085
H                -4.1402476522       -1.4465225079       -0.0562548132
H                -2.2592302289       -3.0306318006        0.2261812302
H                 0.0346499173       -2.1689007309        0.4368114121
H                 0.9213413700        1.3816370957        0.7996456095
H                 1.6009905075        1.2311657553       -1.4867469572
H                 1.1937328597       -0.4861577249       -1.5681039611
H                 3.5498220742       -0.7631235027       -1.2963145701
H                 3.7133605289        0.7625963091       -0.4238254466
H                 1.3783853321       -0.7987701485        2.1509493304



