%chk=./calculation/no_transfer_pubchem_sampling_1_b3lyp/128556173.chk
%nprocshared=7
%mem=6GB
#p b3lyp/6-31g(d) opt SCF=XQC 

Gaussian input prepared by ASE

0 1
C                 4.1445156422        0.6585785657       -1.9684949359
C                 3.1145913879        0.0405202780       -1.0347412552
C                 1.7079744676        0.4022761773       -1.5267599047
N                 0.6649241523       -0.0656685019       -0.6457183546
C                -0.0805317354        0.7707699352        0.1046081691
O                -0.0621717274        1.9798633339       -0.0054965040
C                -0.9989563141        0.0685544329        1.0782806277
C                -0.5835397157       -1.2248648225        1.4753884066
N                -0.2200213325       -2.2723222627        1.7715346312
C                -1.7127857095        0.9312840534        2.1064769237
C                -2.5097162023        0.3376739113        1.0045367276
C                -3.4697612208       -0.8208592504        1.2507688201
C                -4.7321376532       -0.4415913026        0.4741741696
C                -4.1888028885        0.3373183470       -0.7213116368
C                -3.0946898391        1.2040250567       -0.0997743461
C                 3.3098557437       -1.4667870995       -0.7553477522
C                 3.3515057783       -1.1815926655        0.7539548894
C                 3.3340205962        0.3278514667        0.4664460033
H                 4.0474710493        1.7421813675       -1.9762918149
H                 4.0083910676        0.2913344931       -2.9840550978
H                 5.1504566887        0.4052152281       -1.6428989234
H                 1.6026816745        1.4887178593       -1.5814793768
H                 1.5499577054       -0.0223475631       -2.5246679259
H                 0.6438339926       -1.0545500676       -0.4475228371
H                -1.8084332662        0.5356908511        3.1074417706
H                -1.4730038467        1.9840495796        2.0504728599
H                -3.6623080579       -0.9697232148        2.3134033911
H                -3.0546715254       -1.7508265660        0.8547478183
H                -5.3149560844       -1.3133101566        0.1817162420
H                -5.3632535180        0.2090499435        1.0812689361
H                -3.7555601371       -0.3527928763       -1.4475353448
H                -4.9530855988        0.9294103580       -1.2213529385
H                -3.5351936104        2.0979181949        0.3476393573
H                -2.3487779939        1.5303328785       -0.8219001083
H                 2.5071216320       -2.1204394718       -1.0936942623
H                 4.2492809447       -1.8489975769       -1.1495319165
H                 2.4746245527       -1.5368024504        1.2921401258
H                 4.2406027027       -1.5427683783        1.2657210598
H                 4.2815383776        0.8218513657        0.6695656874
H                 2.5390118214        0.8917755493        0.9498966193



