%chk=./calculation/no_transfer_pubchem_sampling_1_b3lyp/128940178.chk
%nprocshared=7
%mem=6GB
#p b3lyp/6-31g(d) opt SCF=XQC 

Gaussian input prepared by ASE

0 1
C                -6.0194292766        0.1298005395        0.4086729711
C                -5.7563675343        0.5087086834       -1.0288800603
S                -4.6114038191       -0.6871707395       -1.8041810360
O                -4.4896347840       -0.3052774337       -3.1820000633
O                -5.0511190194       -2.0101841175       -1.4781790843
N                -3.1375989060       -0.4676756645       -1.1079128606
C                -2.7136952525       -1.2258561592        0.0489962699
C                -2.0818253395       -0.3093594974        1.0906690671
C                -0.8353038542        0.3856001929        0.5192055488
C                 0.4221841606       -0.4252131878        0.8502693554
O                 0.3890130839       -1.5219577875        1.3546706926
N                 1.5652294009        0.2365852562        0.5027061823
C                 2.8961716211       -0.1722432448        0.6068039859
C                 3.2540933250       -1.4359531581        1.1300261005
C                 4.5651700917       -1.8042954797        1.2195905944
C                 5.5853818326       -0.9306826899        0.7920033453
N                 6.8789124645       -1.2979932431        0.8836092454
C                 7.7736809375       -0.4415675390        0.4690260221
C                 7.4189656976        0.8191437788       -0.0546275819
N                 6.1766219115        1.2069761176       -0.1567869228
C                 5.2266164841        0.3422057376        0.2636284527
C                 3.8723366811        0.7005490007        0.1801144930
C                -0.9452944357        0.5505063346       -1.0113363982
C                -2.4042413922        0.7330916022       -1.4158650213
H                -6.3026443571       -0.9191940865        0.4509438346
H                -5.1303878055        0.2738089491        1.0176551552
H                -6.8253985626        0.7286883735        0.8286873410
H                -6.6546903466        0.4516571732       -1.6366891752
H                -5.3045259025        1.4891293324       -1.1454791050
H                -3.5869530044       -1.7462383465        0.4413309669
H                -1.9816755885       -1.9851679641       -0.2514718512
H                -1.7900860624       -0.9073028484        1.9547331450
H                -2.8066620831        0.4384354415        1.4164816576
H                -0.7324613312        1.3716432907        0.9862070774
H                 1.4536589081        1.1572974898        0.1006657093
H                 2.4722384512       -2.1009624645        1.4566292513
H                 4.8507421566       -2.7654623955        1.6165417994
H                 8.8092171026       -0.7447517676        0.5461087950
H                 8.1736576632        1.5166864952       -0.3933430498
H                 3.6273520822        1.6713082517       -0.2252485768
H                -0.3678913244        1.4104784909       -1.3539319832
H                -0.5606061339       -0.3398902219       -1.5105171941
H                -2.5015044243        0.9000852756       -2.4906396909
H                -2.8198415160        1.6077952294       -0.8888904042



