%chk=./calculation/no_transfer_pubchem_sampling_1_b3lyp/128963515.chk
%nprocshared=7
%mem=6GB
#p b3lyp/6-31g(d) opt SCF=XQC 

Gaussian input prepared by ASE

0 1
C                -5.9420602956        1.8816049264        0.3843715533
O                -4.6083064900        2.2347404137        0.6514948818
C                -3.6586079221        1.2625281449        0.5902884919
C                -3.8848990333       -0.0626026506        0.2704736606
C                -2.8412237206       -0.9810935163        0.2308078859
C                -1.5479109078       -0.5872804201        0.5073634572
C                -0.3401131966       -1.5065012325        0.4976781604
N                 0.7308264856       -0.8833101723       -0.2637444528
C                 1.8762594429       -0.4458337329        0.2869433808
O                 2.1424056947       -0.5404915005        1.4667147927
C                 2.8255126736        0.2019645379       -0.7214022535
C                 4.1993857432        0.4089412554       -0.0856750145
N                 5.0882989154        1.0663105934       -0.9990076202
C                 5.6860884223        2.2761015319       -0.9316603032
N                 6.3893775927        2.4507046205       -2.0206322725
N                 6.2183607285        1.3546629203       -2.7478279808
N                 5.4569169253        0.5277602288       -2.1653398499
C                -0.5886479696       -2.9379116033       -0.0113387112
C                -0.8540603640       -2.9785166207       -1.5174938435
C                 0.6041280131       -3.8280748421        0.3338867523
C                -1.3163870767        0.7488554663        0.8457486467
C                -2.3401062441        1.6737679356        0.8934127986
O                -2.1934405372        2.9871882945        1.2180167631
C                -0.9144680498        3.4484582701        1.5731344129
H                -6.0634794591        1.5035121014       -0.6364570012
H                -6.5164641210        2.7994804221        0.4980331804
H                -6.3116292897        1.1335497448        1.0937826907
H                -4.8817777017       -0.4074185611        0.0473172618
H                -3.0766051695       -2.0038141124       -0.0120744871
H                 0.0435092474       -1.5689664762        1.5248253871
H                 0.5509639650       -0.7231209473       -1.2417746870
H                 2.9237756403       -0.4279737185       -1.6071604067
H                 2.4055926441        1.1638871644       -1.0293576786
H                 4.6221229727       -0.5628902271        0.1845738197
H                 4.1101584275        1.0121869275        0.8198630907
H                 5.5919968671        2.9602485558       -0.1163260744
H                -1.4625617787       -3.3241785385        0.5201796689
H                -1.5702690908       -2.2160397807       -1.8136775358
H                -1.2520328459       -3.9507033209       -1.7985164613
H                 0.0689104562       -2.8271008950       -2.0734472181
H                 0.4321368265       -4.8418826086       -0.0194990157
H                 1.5115148342       -3.4507690468       -0.1326495538
H                 0.7628480866       -3.8589323308        1.4089142752
H                -0.3090143529        1.0456591971        1.0906463824
H                -0.5174159186        2.9135398938        2.4420398733
H                -0.2077346830        3.3595044912        0.7405171765
H                -1.0418743869        4.5002482174        1.8240349767



