%chk=calculation/no_transfer_pubchem_sampling_1_b3lyp/128940178_rwf.chk
%rwf=calculation/no_transfer_pubchem_sampling_1_b3lyp/128940178_rwf.rwf
%nprocshared=14
%mem=3GB
#p b3lyp/6-31g(d) 6D 10F nosymm GFInput td=(50-50,nstate=2) SCF=XQC 

Gaussian input prepared by ASE

0 1
C                -6.6064892105        0.2061996994        0.0091009307
C                -6.0229750317        0.2515025558       -1.3978880326
S                -4.5664857676       -0.8155128040       -1.6100501536
O                -4.1369157933       -0.6575236951       -3.0076033267
O                -4.8841442602       -2.1398515094       -1.0642467145
N                -3.4242949911       -0.1199502444       -0.5722548676
C                -2.8390680460       -1.0115610260        0.4605442467
C                -1.9063763151       -0.1911897532        1.3520891305
C                -0.7129480586        0.4137665112        0.5691903239
C                 0.5479178038       -0.4438034664        0.7263943142
O                 0.4948326239       -1.6476890407        0.9358522091
N                 1.7236766804        0.2614980378        0.5630897768
C                 3.0562719239       -0.1955939551        0.5670771017
C                 3.3896544932       -1.5722923194        0.7412833618
C                 4.7069514789       -1.9651827179        0.7353803524
C                 5.7531316440       -1.0248065220        0.5586321642
N                 7.0502218296       -1.4416131542        0.5575098694
C                 7.9617059727       -0.5059381945        0.3873177890
C                 7.6267876417        0.8644653603        0.2136914736
N                 6.3847424984        1.3010998062        0.2098296625
C                 5.4156338586        0.3537982369        0.3841447835
C                 4.0589490247        0.7442192032        0.3921391959
C                -1.0566974112        0.5381965930       -0.9418523812
C                -2.5278797003        0.9109302776       -1.1415437608
H                -6.8943319249       -0.8139913491        0.2765742123
H                -5.8825033716        0.5702683706        0.7443797561
H                -7.4962645733        0.8428790766        0.0595599298
H                -6.7306785041       -0.1111043644       -2.1507706228
H                -5.7045922125        1.2571681731       -1.6901614212
H                -3.6532465196       -1.4363788555        1.0494648779
H                -2.2862360169       -1.8474969549        0.0158385351
H                -1.5372380976       -0.8407826976        2.1502646954
H                -2.4808805030        0.6170968857        1.8192530528
H                -0.5103649821        1.4203228581        0.9599129986
H                 1.6240450673        1.2579276584        0.4197519677
H                 2.5914513405       -2.2878962592        0.8778588811
H                 4.9780803696       -3.0081566955        0.8662809197
H                 9.0052483058       -0.8172898296        0.3829355080
H                 8.4153078121        1.6034313727        0.0761617205
H                 3.8361759527        1.7996879538        0.2567949622
H                -0.4216947040        1.2908041021       -1.4234895455
H                -0.8625822190       -0.4142213353       -1.4482980751
H                -2.7397407968        1.0118733522       -2.2081316129
H                -2.7361553111        1.8784716585       -0.6620111883



