%chk=calculation/no_transfer_pubchem_sampling_1_b3lyp/132329463_rwf.chk
%rwf=calculation/no_transfer_pubchem_sampling_1_b3lyp/132329463_rwf.rwf
%nprocshared=14
%mem=3GB
#p b3lyp/6-31g(d) 6D 10F nosymm GFInput td=(50-50,nstate=2) SCF=XQC 

Gaussian input prepared by ASE

0 1
C                 8.6814370963        1.8821158389       -0.5838312800
O                 8.4180540913        1.1061635891        0.5725259384
C                 7.2033916506        0.4875896379        0.6774087781
C                 7.0057972936       -0.2656751453        1.8432730200
C                 5.8013170618       -0.9320698860        2.0271788126
C                 4.7855468626       -0.8601311439        1.0683410410
C                 4.9702972610       -0.1089947578       -0.0974780242
C                 3.8953689276        0.0454348840       -1.1522429192
C                 2.8411370381       -1.0985988789       -1.2806168331
C                 1.8270073163       -0.2249128623       -0.4892617142
N                 0.4410775562       -0.1491454317       -0.9050241043
C                -0.4848896015       -1.0258541039       -0.3536489653
O                -0.1975665938       -1.7930130850        0.5606454190
N                -1.7588574490       -0.9793788958       -0.9157624467
C                -2.3446190533        0.2091350049       -1.5266061687
C                -3.2884384815        0.9439615061       -0.5571040708
N                -4.2770993113        0.0270433036       -0.0057164136
C                -5.5669025281        0.4112421984        0.2890412618
C                -6.1016903975        1.6803490535       -0.0428933272
C                -7.4282941782        1.8962272006        0.2805284545
N                -8.2157735700        0.9899477343        0.8833133691
C                -7.6164797020       -0.1736171310        1.1706553592
C                -8.4454302885       -1.2282241353        1.8576136179
N                -6.3446689150       -0.4968302497        0.9076303274
C                -3.6975909981       -1.1735381862        0.6106092884
C                -2.7719627428       -1.8869760730       -0.3749245598
C                 2.7161921153        1.0103919339       -0.7663060383
C                 6.1912157252        0.5619024403       -0.2842777760
H                 7.9757900210        2.7183025325       -0.6805544331
H                 9.6912542086        2.2769309285       -0.4561868206
H                 8.6438866302        1.2739241319       -1.4976647220
H                 7.8050917119       -0.3148022168        2.5759078845
H                 5.6482150849       -1.5203379747        2.9282055062
H                 3.8584280595       -1.3991772006        1.2368531339
H                 4.3750593484        0.3122331311       -2.0992080591
H                 3.0939228537       -2.0787165511       -0.8666562475
H                 2.5289568058       -1.2307084065       -2.3232667970
H                 1.8208209207       -0.4946593525        0.5667640667
H                 0.2984262143        0.1061328291       -1.8742317742
H                -1.5660222068        0.9049570373       -1.8421842737
H                -2.9122918314       -0.0944027629       -2.4167067069
H                -2.6925502595        1.4026560025        0.2493777711
H                -3.7835113231        1.7448493465       -1.1079962941
H                -5.5244478171        2.4673989802       -0.5103103627
H                -7.8927716226        2.8545138719        0.0502947066
H                -8.5022124297       -2.1314000047        1.2392171866
H                -7.9820082136       -1.5190505038        2.8070148908
H                -9.4533063259       -0.8532468472        2.0436370724
H                -4.5159150374       -1.8215222533        0.9205111845
H                -3.1209286984       -0.8896283223        1.5048715626
H                -2.2576160026       -2.7090126262        0.1222645698
H                -3.3601962443       -2.2824383864       -1.2136516964
H                 2.8837398814        1.7067661884        0.0605021925
H                 2.3666039266        1.5769392392       -1.6382493299
H                 6.3360061601        1.1389578302       -1.1916292569



