%chk=./calculation/no_transfer_pubchem_sampling_1_b3lyp/133597016.chk
%nprocshared=7
%mem=6GB
#p b3lyp/6-31g(d) opt SCF=XQC 

Gaussian input prepared by ASE

0 1
C                 4.8448989423       -0.7377787943       -0.9202938428
C                 6.1559723170       -0.7238186404       -1.3992991826
C                 7.0661619569        0.0609625267       -0.7424331646
C                 6.6951840880        0.8219365729        0.3689971125
C                 5.4141015086        0.8199877614        0.8505640698
C                 4.4742099912        0.0178390263        0.1826231276
O                 3.2189310813        0.0569058528        0.7121491130
C                 2.1932222081       -0.6975381654        0.1008095145
C                 0.9020451899       -0.4062787746        0.8595319232
C                 0.4533394996        1.0341168148        0.6643133890
S                -0.0505630488        1.3888328514       -1.0613029177
C                -1.5812710747        0.5916961845       -1.1011050696
N                -2.3414277358        0.4404797209       -2.1376878054
N                -3.4439072623       -0.2118518852       -1.7113315666
C                -3.3120766199       -0.4286404038       -0.4480349192
C                -4.2397942098       -1.1099049857        0.4907371702
C                -5.4414145458       -1.7205653008       -0.2507316771
C                -6.6869802605       -0.8381491221       -0.1419340889
C                -6.2940985421        0.6280461222       -0.2738677135
C                -5.4477044289        1.0695664568        0.9281712467
C                -4.7008517477       -0.1094913504        1.5602157806
O                -2.1278882076        0.0593304163        0.0189834142
O                 7.7829042345        1.5079973438        0.8344776173
C                 8.8537323226        1.1611208253       -0.0189864566
O                 8.4017547095        0.2539366778       -0.9992537850
H                 4.1252815511       -1.3536545359       -1.4332436039
H                 6.4395123940       -1.3108182648       -2.2561059504
H                 5.1197225849        1.4024764536        1.7057329343
H                 2.0795799838       -0.4086119893       -0.9529517622
H                 2.4251083200       -1.7699201757        0.1536133063
H                 0.1264912484       -1.0979919568        0.5281238989
H                 1.0786805667       -0.5690102897        1.9244957400
H                 1.2827632063        1.7129948901        0.8550958044
H                -0.3841626769        1.2862185819        1.3124141425
H                -3.6618164802       -1.9010167518        0.9844951933
H                -5.6574759756       -2.7092001195        0.1569065028
H                -5.1731969118       -1.8348176758       -1.3007966124
H                -7.1873154748       -0.9982197733        0.8153164464
H                -7.3891480559       -1.1107002175       -0.9301976492
H                -7.1838699581        1.2544069912       -0.3485514862
H                -5.7234594796        0.7443138454       -1.1959632967
H                -4.7334490326        1.8299335702        0.6053185990
H                -6.0832692696        1.5259694573        1.6896758053
H                -5.3516780381       -0.6386743189        2.2573981571
H                -3.8389194441        0.2528429368        2.1245162660
H                 9.2434293326        2.0692211290       -0.5071139460
H                 9.6587142441        0.6955234824        0.5724142219



