%chk=./calculation/no_transfer_pubchem_sampling_1_b3lyp/134487256.chk
%nprocshared=7
%mem=6GB
#p b3lyp/6-31g(d) opt SCF=XQC 

Gaussian input prepared by ASE

0 1
C                 9.3561142233        0.9537581206       -0.1800762572
N                 8.2261691764        0.1530557413        0.2325924308
C                 7.3691811641        0.7943778587        1.2183718311
C                 6.1286403250        1.4511978224        0.6049838244
N                 5.3320953872        0.4450119855       -0.0637260765
C                 3.9610609292        0.4671836898       -0.0219545672
C                 3.2501527860        1.6594323526        0.1923222034
C                 1.8734640230        1.6450910981        0.2053311633
C                 1.2051718981        0.4325231924       -0.0048101477
N                -0.1786617514        0.4244434980        0.0140299616
C                -1.0483875145       -0.6078453567       -0.1749211655
N                -0.5774584781       -1.8311173418       -0.4212795122
C                -1.4330442754       -2.8131741424       -0.5961562484
C                -2.8050636141       -2.5947215741       -0.5272778852
C                -4.0095557382       -3.3407406285       -0.6413185453
C                -5.0420325411       -2.4664405974       -0.4653212552
C                -6.5118863386       -2.7255262308       -0.4092692006
O                -6.9319714227       -3.1592783997        0.8712408655
N                -4.5426862421       -1.1953889414       -0.2386952539
N                -5.3608627444       -0.0951746200       -0.0142243501
C                -5.3318277544        0.3186819861        1.3825350542
C                -6.4083026183        1.3736653355        1.6077838999
C                -6.1725053299        2.5662364595        0.6869681172
C                -6.1229278387        2.0809583405       -0.7580370511
C                -5.0483056327        1.0099448646       -0.9086747206
C                -3.1867319460       -1.2502908894       -0.2640724165
N                -2.3350859549       -0.2486963985       -0.0856671238
N                 1.8640731311       -0.6936393321       -0.2199806349
C                 3.1796193330       -0.6797200467       -0.2264529773
C                 6.0526663239       -0.7256969468       -0.5109280231
C                 7.4650649153       -0.3204274167       -0.9143635089
H                 9.0681004571        1.8808351069       -0.7013758519
H                 9.9515497002        1.2114952173        0.6941740249
H                 9.9734710662        0.3610170537       -0.8542922497
H                 7.0401506073        0.0308606430        1.9330057757
H                 7.9453858284        1.5396500120        1.7689982641
H                 6.4360603587        2.2389620225       -0.0997610039
H                 5.5438546244        1.9165573942        1.4028323669
H                 3.7720425995        2.5942031931        0.3311710292
H                 1.3183967586        2.5576927506        0.3677250717
H                -0.6324222758        1.3102655458        0.1877853404
H                -1.0046376243       -3.7877462376       -0.7938746149
H                -4.0866898834       -4.3925913571       -0.8374872456
H                -7.0538155540       -1.7960549595       -0.5949772169
H                -6.7850015652       -3.4706326390       -1.1702949969
H                -6.4201335050       -3.9392092991        1.1135934979
H                -4.3424283256        0.7185702648        1.6559477960
H                -5.5361036669       -0.5644717530        1.9931221314
H                -6.3968764953        1.6858519521        2.6530702241
H                -7.3822733450        0.9325184287        1.3909884625
H                -6.9672426575        3.3036548586        0.8115929388
H                -5.2240575991        3.0441624407        0.9436458643
H                -7.0900092292        1.6551993414       -1.0306838795
H                -5.9074387216        2.9086351685       -1.4355421465
H                -4.0574925674        1.4329981139       -0.6864179180
H                -5.0373919295        0.6200049770       -1.9302537093
H                 3.6320872279       -1.6458128225       -0.3963159378
H                 5.5418694791       -1.1414215281       -1.3835205055
H                 6.1021255840       -1.5032625155        0.2653275037
H                 7.9892188468       -1.1822836259       -1.3393604895
H                 7.3935249265        0.4526687702       -1.6992069559



