%chk=./calculation/no_transfer_pubchem_sampling_1_b3lyp/137067155.chk
%nprocshared=7
%mem=6GB
#p b3lyp/6-31g(d) opt SCF=XQC 

Gaussian input prepared by ASE

0 1
C                -4.3715698415        1.8277160836       -2.1979711473
N                -3.1077494058        1.1840100572       -1.9229701163
C                -2.0743831857        1.2953783562       -2.9246991126
C                -2.8811793862        0.4937172692       -0.7850043256
N                -1.7046308846       -0.0520182117       -0.5973936930
C                -1.5671629106       -0.7145940040        0.5731330754
C                -2.5496609148       -0.8472931111        1.5690265338
C                -1.9238899046       -1.6032105980        2.5877035583
C                -2.5011744009       -2.0685220990        3.8780937146
O                -1.5268987147       -2.5341646439        4.7759237630
N                -0.6921799143       -1.8977830710        2.2318591966
N                -0.4719256766       -1.3579928397        1.0141958586
C                 0.8089270383       -1.5849177880        0.3838653789
C                 1.6980796976       -0.3624231107        0.4311402222
C                 1.2491495032        0.8929261751        0.0424287794
C                 2.0896412073        1.9908546553        0.0653170584
C                 3.4064724104        1.8529036200        0.4808612119
C                 4.3444978241        3.0373243458        0.4704303701
C                 5.1472703651        3.1369623017       -0.8189922812
F                 5.2018233808        2.9734363348        1.5328638154
F                 3.6485679060        4.1987504647        0.6594203397
C                 3.8824973076        0.6093364423        0.8684738999
C                 3.0232969964       -0.4715659804        0.8361369215
F                 3.5063453983       -1.6759499515        1.2034907150
C                 0.6290067790       -2.0458581853       -1.0496845579
C                 0.3309059870       -3.4902802239       -1.3181439836
C                 1.6737122156       -2.9255465170       -1.6655729414
C                -3.8358675556       -0.2605244994        1.3721183717
O                -4.8124716800       -0.2614171662        2.0887385010
N                -3.8969768725        0.4015404721        0.1257166844
H                -4.6157734552        2.5735290834       -1.4359808020
H                -4.2935833422        2.3386378828       -3.1543994678
H                -5.1873812813        1.1017343493       -2.2665255540
H                -1.7977755673        2.3419357213       -3.0713585339
H                -2.4212891787        0.8807066432       -3.8736448133
H                -1.2068707648        0.7383125836       -2.5841053611
H                -3.0460416604       -1.2477366840        4.3568954595
H                -3.2333460291       -2.8662623648        3.6635339206
H                -0.7595353183       -2.7974472942        4.2524228522
H                 1.2732664377       -2.3832844664        0.9726515969
H                 0.2264389184        1.0028834534       -0.2818366624
H                 1.7218999253        2.9614916155       -0.2292087231
H                 4.4667788613        3.2420689989       -1.6589950398
H                 5.8007517219        4.0048794827       -0.7677111209
H                 5.7448871674        2.2384996820       -0.9413833658
H                 4.8981051461        0.4782366693        1.2071789804
H                 0.1488288936       -1.3061880237       -1.6757154096
H                 0.2625013402       -4.1591525877       -0.4739666728
H                -0.3523193589       -3.7305801407       -2.1180027969
H                 2.5181063442       -3.2108186444       -1.0572431770
H                 1.9192748001       -2.7768850193       -2.7058264341
H                -4.7893963683        0.8346464826       -0.0672866859



