%chk=./calculation/no_transfer_pubchem_sampling_1_b3lyp/137479145.chk
%nprocshared=7
%mem=6GB
#p b3lyp/6-31g(d) opt SCF=XQC 

Gaussian input prepared by ASE

0 1
C                10.2759283166        1.6646994817       -0.3452675204
C                 9.4580398730        0.4950690574       -0.7304336062
N                 9.9451240802       -0.5774855037       -1.2906793857
O                 8.8758502457       -1.4016910582       -1.4797991836
C                 7.7991664204       -0.7505819603       -1.0091108282
C                 6.4869185759       -1.3446957822       -1.0549244768
C                 6.3170595284       -2.6285567716       -1.6001689246
C                 5.0789039509       -3.2266037469       -1.6602696556
C                 3.9882448504       -2.5205402527       -1.1622529546
N                 2.6661850368       -2.8670397253       -1.0956150991
C                 2.0762267866       -1.8395861403       -0.5374386683
N                 0.7335506963       -1.7993197948       -0.2944262734
C                 0.0312205163       -0.7783463078        0.2952800960
C                -1.3518833954       -0.9154129170        0.4805559642
C                -2.0521307421        0.1144273890        1.0757393501
C                -3.5316330221        0.0115459908        1.3194699846
N                -4.2230483533        1.1659751101        0.7580762042
C                -3.9689660354        1.3165395184       -0.6621661685
C                -4.6029789203        0.1836659912       -1.4910468741
N                -5.8189359728       -0.2445882154       -0.8273145384
C                -6.0592598285       -1.5487632879       -0.6281043047
O                -5.3617987392       -2.4556355369       -1.0218649121
C                -6.5165625397        0.8071417745       -0.1362994148
C                -5.6557650967        1.3237220840        1.0590299210
C                -6.0858098903        0.5815359968        2.3256983381
C                -5.9203196553        2.8212473675        1.2727187052
C                -1.3484952287        1.2581219701        1.4645956386
C                 0.0090990774        1.3011884624        1.2342916376
N                 0.6927371749        0.3158409291        0.6674636572
N                 2.9175770555       -0.8176909057       -0.2224294974
C                 4.1714660706       -1.2213900115       -0.6121934439
C                 5.4078768300       -0.6193179694       -0.5502653885
N                 8.1130821850        0.4271114234       -0.5362163160
H                10.1789845332        1.8419971621        0.7238432154
H                 9.9172057074        2.5485987658       -0.8690137956
H                11.3151275012        1.4802212166       -0.5990891452
H                 7.1878784649       -3.1434783583       -1.9758733408
H                 4.9466346103       -4.2110886017       -2.0780488614
H                 0.2297646794       -2.6278193063       -0.5751952493
H                -1.8528728654       -1.8170452982        0.1611183601
H                -3.6793366294        0.0198027890        2.4016100878
H                -3.8930352532       -0.9522498225        0.9313714358
H                -2.8911280381        1.3402816637       -0.8283579856
H                -4.3715150485        2.2814398941       -0.9761266301
H                -3.9444563899       -0.6844914066       -1.5633565293
H                -4.8329587695        0.5294150204       -2.5052110477
H                -6.9939425454       -1.7195460117       -0.0611778050
H                -7.4751511266        0.4293930257        0.2223265307
H                -6.7098488509        1.6180425644       -0.8454900693
H                -5.5002138013        0.9035130278        3.1827831911
H                -7.1292365776        0.8100628425        2.5320789826
H                -5.9890938943       -0.4953479408        2.2101614420
H                -5.6070919073        3.4039540143        0.4112783418
H                -5.3621127041        3.1698778214        2.1368302593
H                -6.9793604958        2.9969293272        1.4427219988
H                -1.8677484741        2.0832223323        1.9222564796
H                 0.6011309457        2.1623837410        1.5143830633
H                 2.5923542412        0.0349966451        0.2164251739
H                 5.5633528369        0.3636622340       -0.1368781645



