%chk=./calculation/no_transfer_pubchem_sampling_1_b3lyp/138610823.chk
%nprocshared=7
%mem=6GB
#p b3lyp/6-31g(d) opt SCF=XQC 

Gaussian input prepared by ASE

0 1
N                 1.5339502181        2.8184657206        1.8215168640
C                 2.3465477633        2.3917739411        0.6974321488
C                 1.5375874636        2.4826641901       -0.6057909292
C                 0.2352761447        1.7525492820       -0.4675208823
C                -0.9320812254        2.4569705823       -0.2063622883
C                -2.1399986272        1.8161837581       -0.0003703172
S                -3.5616931718        2.9085462587        0.1355389850
N                -4.1785597507        2.5466661226        1.6344501224
O                -3.0591652767        4.2511901153        0.2177362561
O                -4.4485469753        2.6072612260       -0.9454024469
C                -2.2125471967        0.4408462822       -0.0525559538
S                -3.6795847477       -0.5256462296        0.2896880228
N                -3.2517637403       -1.0467721275        1.8236061778
O                -3.7283401089       -1.6286696842       -0.6260950177
O                -4.8742274156        0.2370142960        0.4754406466
C                -1.0580658671       -0.2873055398       -0.3276136180
C                -1.0938363512       -1.7386499559       -0.4988309560
N                -0.8282280642       -2.3324564373       -1.6831314966
N                -0.9410909660       -3.5908178744       -1.5023833359
N                -1.2459996617       -3.7776609226       -0.2462082720
N                -1.3445888551       -2.6484544994        0.4336731578
C                 0.1633589939        0.3604618132       -0.5437135227
C                 1.3509476951       -0.4716952781       -0.8346662566
C                 1.9404802169       -0.4601498627       -2.1239557557
C                 3.0142272013       -1.2552233060       -2.4025669806
C                 3.5359455314       -2.0830675248       -1.3984194157
N                 4.5527106263       -2.9239180259       -1.4157067320
C                 4.6056192298       -3.4646034151       -0.1857642399
C                 3.6145710645       -2.9624288231        0.6249398354
N                 2.9240108614       -2.0760945665       -0.1390348745
C                 1.8544587777       -1.2947239932        0.1326501329
H                 2.0664213943        2.7769433271        2.6826448060
H                 1.2224084726        3.7751476600        1.6927598944
H                 2.6346584177        1.3517804591        0.8754447367
H                 3.2710620096        2.9809295617        0.5692829741
H                 2.1372190175        2.0617039004       -1.4126078870
H                 1.3366908864        3.5316027186       -0.8264438296
H                -0.9352795146        3.5345062066       -0.1581608272
H                -4.6721807552        3.3350388757        2.0226966396
H                -4.7666442303        1.7246639822        1.5512033101
H                -4.0560788187       -1.2678274992        2.3882270041
H                -2.5879697629       -1.8108821956        1.7918303216
H                -1.4180477835       -4.6827560478        0.1673205782
H                 1.5037456143        0.1648670359       -2.8858789310
H                 3.4764203577       -1.2791423299       -3.3748053700
H                 5.3548313123       -4.1908904825        0.0611399560
H                 3.3642758268       -3.1620035904        1.6464976701
H                 1.4370927695       -1.3459381042        1.1282708961



