%chk=calculation/no_transfer_pubchem_sampling_1_b3lyp/138610823_rwf.chk
%rwf=calculation/no_transfer_pubchem_sampling_1_b3lyp/138610823_rwf.rwf
%nprocshared=14
%mem=3GB
#p b3lyp/6-31g(d) 6D 10F nosymm GFInput td=(50-50,nstate=2) SCF=XQC 

Gaussian input prepared by ASE

0 1
N                 1.4988184530        3.4084695985        1.7055102038
C                 2.2825773033        2.5423879664        0.8253134828
C                 1.5642422398        2.3274216600       -0.5240381075
C                 0.2404918954        1.6057283097       -0.3955922242
C                -0.9059483432        2.3436242497       -0.0948558489
C                -2.1522807644        1.7511174196        0.0894551673
S                -3.4862691231        2.9968898997        0.2680989897
N                -4.1269851587        2.6946675131        1.7906266434
O                -2.8246906593        4.2995758894        0.4071242224
O                -4.4297436234        2.7760974985       -0.8261430985
C                -2.2776233187        0.3556855824       -0.0338675460
S                -3.8296071277       -0.5554061053        0.2870204288
N                -3.4308615300       -1.2770319840        1.7593936618
O                -3.9982530574       -1.5258432396       -0.7951001514
O                -4.9361552348        0.3453596704        0.6176289076
C                -1.1393205355       -0.4053410280       -0.3797940691
C                -1.2051253569       -1.8636965291       -0.6616338069
N                -1.0232230860       -2.3711538290       -1.9127686096
N                -1.1271804105       -3.6692347503       -1.8092446195
N                -1.3607621561       -3.9087785162       -0.5266830813
N                -1.4079246748       -2.8232182830        0.2403126492
C                 0.1211723688        0.2137430361       -0.5443642194
C                 1.3289650563       -0.6184192570       -0.8516321793
C                 1.8459449294       -0.7135290588       -2.1839823054
C                 2.9659087739       -1.4600126718       -2.4504808461
C                 3.6203112199       -2.1488174368       -1.4030114512
N                 4.7021708686       -2.9225286651       -1.4084344104
C                 4.8617646174       -3.3173950686       -0.1135259053
C                 3.8876164777       -2.7990269151        0.7161834138
N                 3.0786894784       -2.0413864677       -0.1047971549
C                 1.9599709068       -1.2915317856        0.1624353917
H                 1.8838729203        3.4000155437        2.6473721140
H                 1.5467978361        4.3739798174        1.3834740351
H                 2.4024600463        1.5735340281        1.3241313511
H                 3.2994820640        2.9146618122        0.6095365880
H                 2.2382408895        1.7806047850       -1.1891962672
H                 1.3916100222        3.3083579870       -0.9856353585
H                -0.8363612166        3.4185370077        0.0091890456
H                -4.3999394765        3.5850827848        2.2016315650
H                -4.8845520106        2.0165780554        1.7306494126
H                -4.2940579288       -1.4774569975        2.2624141876
H                -2.8550784063       -2.1096670916        1.6152629480
H                -1.4858892231       -4.8456479982       -0.1650234398
H                 1.3236806712       -0.2009812865       -2.9846958240
H                 3.3711294855       -1.5537884028       -3.4516906183
H                 5.6792176161       -3.9656517956        0.1759646579
H                 3.7010852621       -2.8918172678        1.7752954306
H                 1.6216100205       -1.2747586839        1.1921676449



