%chk=./calculation/no_transfer_pubchem_sampling_1_b3lyp/140255146.chk
%nprocshared=7
%mem=6GB
#p b3lyp/6-31g(d) opt SCF=XQC 

Gaussian input prepared by ASE

0 1
C                 3.3146657431       -0.0571125641        0.0872848877
O                 2.0724807132       -0.7355065143        0.0405850218
C                 0.9834940516        0.0416217250        0.0270692124
N                 1.1016672647        1.3523832304        0.0564252714
C                 0.0221206184        2.1355145662        0.0432812755
C                -1.2694684846        1.6614168118       -0.0006528017
C                -1.4151239095        0.2726392364       -0.0323015876
C                -0.2951940992       -0.5541384517       -0.0189527923
O                -0.5773736183       -1.8710043035       -0.0528061031
C                -1.9893840208       -2.0072750089       -0.0931990131
C                -2.5889451749       -0.6001466198       -0.0810641293
O                -3.7612806503       -0.3248265016       -0.1068352260
H                 3.4316451435        0.5907907750       -0.7839161463
H                 4.0767983194       -0.8327970589        0.0921069716
H                 3.3843598823        0.5553506904        0.9886647810
H                 0.2372974388        3.1938690582        0.0701792482
H                -2.1283808826        2.3105928030       -0.0105887477
H                -2.2760148853       -2.5479451010       -1.0000495771
H                -2.3233624494       -2.5834247729        0.7747694545



