%chk=calculation/no_transfer_pubchem_sampling_1_b3lyp/140255146_rwf.chk
%rwf=calculation/no_transfer_pubchem_sampling_1_b3lyp/140255146_rwf.rwf
%nprocshared=14
%mem=3GB
#p b3lyp/6-31g(d) 6D 10F nosymm GFInput td=(50-50,nstate=2) SCF=XQC 

Gaussian input prepared by ASE

0 1
C                 3.3337650399       -0.0958689050        0.0870195571
O                 2.0505030272       -0.7300604946        0.0401072863
C                 0.9770300213        0.0813700062        0.0276910945
N                 1.0998803301        1.3955201369        0.0572400153
C                -0.0050466806        2.1805054335        0.0434563186
C                -1.2975186268        1.6879304139       -0.0008707265
C                -1.4277092128        0.2901577072       -0.0322873394
C                -0.3034364712       -0.5198412035       -0.0184874601
O                -0.5430359749       -1.8566544677       -0.0516034857
C                -1.9758995784       -2.0242829493       -0.0931794268
C                -2.5927957633       -0.6117906548       -0.0814004339
O                -3.7789712482       -0.3526404451       -0.1078624014
H                 3.4841442697        0.5462157792       -0.7859491627
H                 4.0555076523       -0.9136289117        0.0899252237
H                 3.4367214674        0.5106774505        0.9917087596
H                 0.1852675975        3.2503385339        0.0699207528
H                -2.1655974762        2.3378835497       -0.0110354965
H                -2.2426185525       -2.5700912825       -1.0037826567
H                -2.2901888199       -2.6057376970        0.7793895745



