%chk=calculation/no_transfer_pubchem_sampling_1_b3lyp/140998169_rwf.chk
%rwf=calculation/no_transfer_pubchem_sampling_1_b3lyp/140998169_rwf.rwf
%nprocshared=14
%mem=3GB
#p b3lyp/6-31g(d) 6D 10F nosymm GFInput td=(50-50,nstate=2) SCF=XQC 

Gaussian input prepared by ASE

0 1
C                -4.2266431198       -1.0569007875        0.7701080726
O                -2.8609320477       -1.4483283252        0.7766149304
C                -2.1077465595       -0.8608137547       -0.2493714470
C                -0.7007570677       -1.3849517498       -0.1851907125
C                 0.1623487409       -0.3790983954       -0.0168374653
C                 1.6219515937       -0.4186386997        0.1550863228
C                 2.3843442098       -1.5343305640       -0.2289768248
C                 3.7582655457       -1.5191042064       -0.0147284045
C                 4.3365328493       -0.3924754123        0.5706382212
C                 3.5005271628        0.6717895212        0.9113646015
N                 2.1799161272        0.6734733152        0.7131157268
C                -0.6054744715        0.9274315816       -0.0192751656
O                -0.2289553634        1.6572165543       -1.1548947398
C                -0.7796584005        2.9649899523       -1.1949295356
O                -1.9802708889        0.5470698869       -0.0743290569
H                -4.7234900453       -1.6399583472        1.5491909860
H                -4.3375164455        0.0122353906        0.9864237912
H                -4.6997878950       -1.2748140737       -0.2004018273
H                -2.6101848631       -1.0467568579       -1.2152592863
H                -0.4864888266       -2.4466710379       -0.2216781702
H                 1.9051004879       -2.3877783233       -0.6981347322
H                 4.3689727014       -2.3695567219       -0.3058189446
H                 5.4052504992       -0.3342849522        0.7532449276
H                 3.9131685578        1.5713115015        1.3659130330
H                -0.4508794373        1.5351925532        0.8822000586
H                -0.3602093229        3.4554232027       -2.0767548096
H                -0.5039824228        3.5406492913       -0.2982362818
H                -1.8734042984        2.9376774585       -1.2790832674



