%chk=./calculation/no_transfer_pubchem_sampling_1_b3lyp/142061602.chk
%nprocshared=7
%mem=6GB
#p b3lyp/6-31g(d) opt SCF=XQC 

Gaussian input prepared by ASE

0 1
C                -0.2968476671        2.2357468113       -0.6967568314
C                 0.0261280878        0.8832097252       -1.3291980971
C                -0.6517012929        0.7199675912       -2.6890940239
N                -0.2969699063       -0.2308133937       -0.4388652221
C                 0.8040587398       -1.0638417739       -0.0020542593
C                 1.7027481603       -0.3468649878        0.9734721205
C                 1.1315395525        0.3697261435        2.0199154289
C                 1.9126018559        1.0390036555        2.9419544588
C                 3.2931439551        1.0009994765        2.8356960854
C                 3.8789386307        0.2857268763        1.8090895672
C                 3.0915856447       -0.3860111616        0.8825121155
N                 3.7452546619       -1.1431613334       -0.1411521556
C                 4.4173725975       -2.3632069171        0.2610418504
C                 3.7948525888       -0.6196388290       -1.3994209568
O                 3.2713503360        0.4216681082       -1.6974280663
O                 4.4605802177       -1.3499184163       -2.3167334793
C                -1.5325048122       -0.5341311127        0.0290514675
O                -1.7397071615       -1.4658926939        0.7811804851
O                -2.4754161228        0.3027187561       -0.4360070251
C                -3.8563464090        0.1354425759       -0.0481969958
C                -4.3832036340       -1.2221530330       -0.5135083334
C                -4.0093572140        0.2947687474        1.4648949268
C                -4.5858473026        1.2661035871       -0.7774632766
H                -1.3662702283        2.3462663271       -0.5454303714
H                 0.2122027050        2.3340920044        0.2593095494
H                 0.0491775146        3.0286790141       -1.3541072770
H                 1.1087895771        0.8355082945       -1.4783879392
H                -1.7271847342        0.8391260872       -2.6004554942
H                -0.2679492065        1.4689849916       -3.3761045843
H                -0.4383659157       -0.2648879643       -3.0985007495
H                 0.3616192948       -1.9362055882        0.4924884672
H                 1.3671598445       -1.3976994279       -0.8769841741
H                 0.0555993209        0.3842167178        2.1071847619
H                 1.4464373952        1.5895200494        3.7452602069
H                 3.9109753309        1.5252624580        3.5488607150
H                 4.9541236755        0.2467200879        1.7135462316
H                 5.5012131040       -2.3037072487        0.1126664422
H                 4.2299019051       -2.5133419337        1.3221089470
H                 4.0198347367       -3.2316450633       -0.2748360949
H                 4.8440294783       -2.1574892320       -1.9543542827
H                -5.4454895884       -1.2971829819       -0.2981325132
H                -4.2300855096       -1.3338775432       -1.5850397864
H                -3.8586572567       -2.0218279920        0.0016233077
H                -3.5940805673        1.2490549004        1.7835030575
H                -5.0616383833        0.2605451534        1.7330849200
H                -3.4862148870       -0.5069296527        1.9785579988
H                -5.6471494627        1.2301518410       -0.5502622288
H                -4.4503516512        1.1674548753       -1.8514862437
H                -4.1898799981        2.2297654240       -0.4670446490



