%chk=./calculation/no_transfer_pubchem_sampling_1_b3lyp/143846472.chk
%nprocshared=7
%mem=6GB
#p b3lyp/6-31g(d) opt SCF=XQC 

Gaussian input prepared by ASE

0 1
C                -3.4515596410       -6.7749944498       -0.9067632062
C                -3.5619219848       -5.3699636498       -0.4076315727
C                -4.6689966451       -4.9346587931        0.3153954355
C                -4.7272873825       -3.6102824696        0.7119478775
C                -3.6912298595       -2.7463643450        0.3868637657
C                -2.5925091824       -3.3063661343       -0.2760004577
N                -2.5432026622       -4.5648306653       -0.6706797223
O                -1.4661864078       -2.5983589316       -0.5544998953
C                -1.2709285917       -1.4344835849        0.1199306310
N                -0.0500359439       -0.9512243708        0.0262266154
C                 0.2721922710        0.1568388810        0.6923351451
C                 1.6240316648        0.6759335018        0.4604585840
C                 2.5994554523       -0.1732190744       -0.0631032818
C                 3.8791760432        0.2848628452       -0.2990035516
C                 4.2112189549        1.6084236036       -0.0255933880
C                 5.5665649684        2.1622999774       -0.3257118614
O                 5.7170676196        3.1625457039       -1.0072393940
N                 6.6179473880        1.4891528000        0.1866148549
C                 6.5927672611        0.4532976791        1.1987212488
C                 7.8774282253        0.6989128220        1.9882712838
C                 8.8458269928        1.1507138679        0.8962392715
C                 7.9657107706        2.0027555186       -0.0153004624
C                 3.2309911706        2.4677607748        0.4586331118
C                 1.9539691432        2.0070458432        0.7099691612
C                -0.6337657068        0.7633300129        1.5645776430
C                -1.9259832514        0.2736546826        1.6283550209
C                -2.2923390061       -0.8141205002        0.8490838242
C                -3.7097191107       -1.2790610016        0.6934458010
C                -4.4254938678       -0.4556993635       -0.4463083277
C                -3.8924884688       -0.8245625486       -1.8323916091
C                -5.9318135340       -0.7250379584       -0.4065924731
C                -4.2061657764        1.0128434901       -0.0855444227
O                -4.9364709192        1.6065677105        0.7047898340
N                -3.1194941585        1.6056542944       -0.6610991253
C                -2.6562287944        2.8842090928       -0.4449232065
N                -3.1749465848        3.6127481232        0.5931431265
S                -1.0098763214        3.1808760544       -0.9690683952
C                -1.2881558561        4.5655467803       -2.0845278052
N                -0.4438005400        5.2298570604       -2.7038189395
H                -4.2714326207       -6.9994926243       -1.5869755160
H                -2.5072641145       -6.8992086077       -1.4270318947
H                -3.5012733460       -7.4761151290       -0.0755959604
H                -5.4677834373       -5.6190226525        0.5548406485
H                -5.5740028422       -3.2426252265        1.2738095973
H                 2.3259765190       -1.1934222842       -0.2809701960
H                 4.6196782895       -0.3792407034       -0.7196390160
H                 6.6236838041       -0.5388086525        0.7309146071
H                 5.6910509569        0.5222041724        1.8094019974
H                 7.7234806213        1.5018144239        2.7101451908
H                 8.2167379437       -0.1893289485        2.5167402201
H                 9.6917441894        1.7105643630        1.2886686963
H                 9.2241911798        0.2836207310        0.3537535368
H                 8.2409311969        1.9266915872       -1.0701405433
H                 7.9901644015        3.0629952007        0.2584841780
H                 3.4830533628        3.5037327347        0.6303087846
H                 1.2046664892        2.6956953466        1.0677080875
H                -0.3421150420        1.6034703472        2.1719635441
H                -2.6622375507        0.7498370376        2.2600415807
H                -4.2724826361       -1.0851508512        1.6132789260
H                -2.8052190960       -0.8407682040       -1.8840545952
H                -4.2686936125       -0.1257396295       -2.5780019935
H                -4.2424748323       -1.8196441951       -2.1019807453
H                -6.1368151306       -1.7822764624       -0.5511294730
H                -6.4246058125       -0.1653362498       -1.1987338890
H                -6.3471844088       -0.4001932917        0.5437627885
H                -2.5565520757        1.0620612585       -1.2999683683
H                -3.0622243866        4.6129270273        0.5487270154
H                -4.0675644823        3.2496254979        0.9250997326
H                -2.3391827299        4.8145289323       -2.1689771768
H                 0.5299994739        4.9639997728       -2.5949389027



