%chk=./calculation/no_transfer_pubchem_sampling_1_b3lyp/14397863.chk
%nprocshared=7
%mem=6GB
#p b3lyp/6-31g(d) opt SCF=XQC 

Gaussian input prepared by ASE

0 1
C                -2.5693238623       -2.0706911387       -1.3403793887
C                -1.3678107722       -1.4717907405       -0.6241789840
P                -1.4024729387        0.3987337446       -0.6172310327
C                -2.4949593481        0.6225189571        0.8762348299
C                -2.8160590272        2.0869124298        1.1465925706
N                 0.0934979869        0.6013879768        0.2239029690
C                 1.2958315741        0.7071850379       -0.5925476377
C                 2.5373950688        0.3730751186        0.2429903474
C                 2.4715065435       -1.0690795038        0.7358991015
C                 3.8045061233        0.6107267269       -0.5732055613
H                -2.4931506850       -3.1563585680       -1.3762635625
H                -3.4958363701       -1.8115312516       -0.8317733077
H                -2.6280287041       -1.6952450092       -2.3601993435
H                -0.4492047439       -1.7689410983       -1.1368030966
H                -1.3032299206       -1.8256363988        0.4082328131
H                -1.9980020645        0.1653648187        1.7373024182
H                -3.4227503417        0.0790570190        0.6825028576
H                -1.9117174338        2.6570309845        1.3539295278
H                -3.3047857802        2.5326622216        0.2825176650
H                -3.4794588713        2.1821703040        2.0049998606
H                 0.0406730387        1.3928522490        0.8588500447
H                 1.2080228278       -0.0107613015       -1.4126533949
H                 1.4140932141        1.7057103076       -1.0359475153
H                 2.5483987258        1.0396352053        1.1136805562
H                 1.5353090047       -1.2393541223        1.2602444948
H                 3.2969722966       -1.2824438091        1.4109523056
H                 2.5263603260       -1.7570042230       -0.1051281720
H                 3.8691788789        1.6478375238       -0.8952455741
H                 4.6861383489        0.3794970492        0.0198599610
H                 3.8089059056       -0.0235205096       -1.4571337519



