%chk=calculation/no_transfer_pubchem_sampling_1_b3lyp/144758130_rwf.chk
%rwf=calculation/no_transfer_pubchem_sampling_1_b3lyp/144758130_rwf.rwf
%nprocshared=14
%mem=3GB
#p b3lyp/6-31g(d) 6D 10F nosymm GFInput td=(50-50,nstate=2) SCF=XQC 

Gaussian input prepared by ASE

0 1
C                 3.3674339577       -3.9567922435       -1.7194543210
O                 2.5164661078       -2.8882709381       -2.1660975364
C                 1.6699810416       -2.3892038759       -1.2378927501
O                 1.6132557815       -2.8115425449       -0.1003296010
C                 0.8510941907       -1.2419665689       -1.8157292623
C                 1.7500252444        0.0275403223       -2.0041365508
C                 1.9678065798        0.9143039151       -0.7903382676
C                 1.6788826357        2.2786430121       -0.8638869323
C                 1.9024359886        3.1127003157        0.2376018997
C                 2.4040762369        2.6227064924        1.4406987244
C                 2.6456628620        3.5087012804        2.6356644554
C                 2.6857703016        1.2407531550        1.5130454164
O                 3.1617025823        0.8081425522        2.7185456990
C                 3.4169682355       -0.5797287304        2.8865713754
C                 2.4812180773        0.4037821828        0.4143452365
C                -0.4313283503       -0.9873414310       -0.9914294500
C                -1.3802445177        0.0012218614       -1.7327270563
C                -2.5773632558        0.4512408835       -0.9229276821
C                -3.8574249515       -0.0288875618       -1.1834975122
C                -4.9465500770        0.4041390130       -0.4181173137
C                -4.7731974935        1.3168732998        0.6153532885
O                -5.7979168364        1.7776847891        1.3957097621
C                -3.4783408188        1.8149109042        0.8905634096
O                -3.3985129148        2.7103091484        1.9156712853
C                -2.1165134239        3.2058215102        2.2622771277
C                -2.4035717862        1.3807673038        0.1187244947
C                -1.1931454942       -2.2658772881       -0.6665142101
O                -1.7465272568       -2.5062206813        0.3798995822
O                -1.2358416166       -3.1032106954       -1.7392036750
C                -1.9576602841       -4.3262253751       -1.5262627815
H                 2.7694125400       -4.7995258347       -1.3635544195
H                 4.0192004749       -3.6175033287       -0.9095574645
H                 3.9575121499       -4.2439140486       -2.5901555392
H                 0.5683940809       -1.5655284262       -2.8233216765
H                 2.7146220691       -0.3163505576       -2.3985054674
H                 1.3085262629        0.6366764868       -2.7991903716
H                 1.2873062891        2.7006482720       -1.7863095623
H                 1.6798212432        4.1745741876        0.1573744774
H                 2.3699740789        4.5446265239        2.4150489813
H                 2.0678860066        3.1740119388        3.5055316290
H                 3.6991312262        3.4903013128        2.9397629661
H                 2.5182517653       -1.1811886353        2.7027749409
H                 4.2202820131       -0.9233086010        2.2214012149
H                 3.7327179826       -0.7003931263        3.9245229891
H                 2.6955423409       -0.6536066540        0.4982713343
H                -0.1625198729       -0.5594523888       -0.0231569893
H                -1.7148815169       -0.4692990611       -2.6653934226
H                -0.7910652722        0.8807775064       -2.0143826956
H                -4.0195027096       -0.7432292408       -1.9866481989
H                -5.9455839193        0.0250865561       -0.6285612874
H                -6.6146964399        1.3404286542        1.1093002514
H                -1.4364522835        2.3965748115        2.5593578118
H                -2.2757333038        3.8759395304        3.1092968959
H                -1.6607881272        3.7675759022        1.4355917696
H                -1.4078684853        1.7634768803        0.3177857892
H                -2.9995261278       -4.1176364826       -1.2690998309
H                -1.5024904688       -4.9020012433       -0.7159681947
H                -1.8961147421       -4.8727399409       -2.4683427847



