%chk=./calculation/no_transfer_pubchem_sampling_1_b3lyp/145004690.chk
%nprocshared=7
%mem=6GB
#p b3lyp/6-31g(d) opt SCF=XQC 

Gaussian input prepared by ASE

0 1
C                 2.3123446554       -4.8203337241       -1.6847340883
C                 1.4307931580       -4.3666028645       -0.7999009117
C                 1.6926956121       -3.3696835442        0.2251910520
C                 0.6638337992       -2.7262165459        0.8303774583
O                -0.6070571008       -3.0198396676        0.4276918941
C                -1.6909092229       -2.6830276949        1.2626595161
C                -2.1542884284       -1.2488021474        1.1513354964
C                -2.5985267920       -0.5548659453        2.2725509257
C                -3.0534250491        0.7433163993        2.1120638961
C                -3.0142974416        1.3170390704        0.8514161611
C                -2.5402146876        0.5408298998       -0.2082090506
N                -2.1456482604       -0.7126191109       -0.0596268643
C                -2.4552224876        1.1457240874       -1.5743142503
C                -3.5544352034        2.2099002162       -1.8477460277
N                -4.3582133782        2.5974658163       -0.7061292071
C                -5.6530726640        1.9622338102       -0.5459324326
C                -5.6913517613        0.4192832755       -0.5611524662
C                -7.1337688434       -0.0498877553       -0.8303286646
O                -8.0797615609        0.8998081082       -0.3997480695
C                -8.0585055160        2.0705271997       -1.1910155818
C                -6.6364727338        2.4747251686       -1.6061328180
C                -3.5552930973        2.6714658189        0.5013720897
C                 0.8656885789       -1.7570099195        1.9361573675
C                 0.5883155358       -0.4684788625        1.7889350166
C                 1.3704583436       -2.3354997965        3.2255208401
C                 3.0825466167       -3.0280649110        0.5708757699
C                 4.0446167674       -4.0110876155        0.7901788957
C                 5.3316233481       -3.6087337328        1.1202602226
C                 5.6305072723       -2.2664267070        1.2236050489
C                 4.5967501155       -1.3444070280        0.9908826769
N                 4.7702933886       -0.0041999119        1.1026901807
C                 6.0180081205        0.6698416323        1.3794410636
C                 5.6753928935        2.1610418965        1.3126320299
C                 4.1560232847        2.2031330014        1.4851888565
C                 3.5093899134        3.4531725224        0.9196433324
O                 4.0960285803        4.3802753888        0.4510156701
O                 2.1608654222        3.4612691983        1.0072861613
C                 3.6908702026        0.9037846332        0.8012348320
C                 3.4660117692        1.0323927441       -0.7153864504
O                 4.6372954928        1.4871606899       -1.3467282166
C                 4.4888112392        1.6245207123       -2.7344337041
N                 3.3601819094       -1.7326996022        0.6733910134
H                 2.0404306929       -5.5614129331       -2.4169440254
H                 3.3287935371       -4.4651253200       -1.7173963644
H                 0.4087700701       -4.7193198277       -0.8289779203
H                -2.5056970850       -3.3342743365        0.9227763624
H                -1.4727322745       -2.9159573353        2.3125166787
H                -2.5966224905       -1.0254629155        3.2438872650
H                -3.4291858862        1.3056599327        2.9558219833
H                -2.4820693196        0.3441697784       -2.3126125296
H                -1.4741758273        1.6225300829       -1.6550352111
H                -4.2203705567        1.8562226989       -2.6333249737
H                -3.0701718691        3.1216303892       -2.2180204034
H                -6.0349707357        2.2977713683        0.4255711562
H                -5.3476890814        0.0345256498        0.3996834649
H                -5.0332698992        0.0262099535       -1.3360712133
H                -7.3554304935       -0.9628749493       -0.2742608390
H                -7.2769516878       -0.2558787862       -1.9014288558
H                -8.6834192779        1.9237397839       -2.0861187072
H                -8.5191209111        2.8427857696       -0.5701002187
H                -6.5610529645        3.5578864558       -1.6887746651
H                -6.3936772679        2.0432608245       -2.5781821260
H                -2.7337059548        3.3704604702        0.3031890041
H                -4.1599253576        3.0768945334        1.3157774265
H                 0.2520874806       -0.0645236376        0.8500136377
H                 0.6872095193        0.2245135804        2.6106568900
H                 2.3623730990       -2.7573323193        3.0732730365
H                 1.4252817108       -1.5713920178        3.9971631042
H                 0.7223573334       -3.1419231630        3.5685392676
H                 3.7861575541       -5.0551302456        0.7193746723
H                 6.1004450211       -4.3476510176        1.2992396019
H                 6.6240854322       -1.9337228594        1.4746106776
H                 6.3779724380        0.3869050747        2.3775090575
H                 6.7846416679        0.4048371519        0.6447788874
H                 6.1916877412        2.7390530247        2.0761638775
H                 5.9225116108        2.5681371937        0.3342816191
H                 3.8986601682        2.1478126340        2.5508319130
H                 1.8101437131        2.6467188433        1.3910695558
H                 2.7658884824        0.4901191429        1.2219365300
H                 2.6319475270        1.7239254854       -0.9184696677
H                 3.1828065837        0.0383798024       -1.0926653183
H                 4.2267999972        0.6674412664       -3.2027809750
H                 5.4471354631        1.9688564771       -3.1174115370
H                 3.7131683066        2.3611070932       -2.9783847822



