%chk=calculation/no_transfer_pubchem_sampling_1_b3lyp/145004690_rwf.chk
%rwf=calculation/no_transfer_pubchem_sampling_1_b3lyp/145004690_rwf.rwf
%nprocshared=14
%mem=3GB
#p b3lyp/6-31g(d) 6D 10F nosymm GFInput td=(50-50,nstate=2) SCF=XQC 

Gaussian input prepared by ASE

0 1
C                 1.1060966988       -1.9248223547       -2.2247780899
C                 0.6846405157       -1.4651779938       -1.0352107863
C                 1.4696045128       -1.4122957782        0.2035487176
C                 0.9853739778       -0.7336114430        1.2834710638
O                -0.1530030708        0.0297888265        1.0863631575
C                -1.3340202002       -0.3923336598        1.7962139242
C                -2.5025993066        0.3722895697        1.2265621882
C                -3.0388810186        1.4839984083        1.8820981197
C                -4.0989156242        2.1600264388        1.2845063928
C                -4.5977149369        1.7189754841        0.0580219724
C                -3.9920056225        0.5913606837       -0.5250459124
N                -2.9749284109       -0.0643595601        0.0511124945
C                -4.4915321796        0.0385610337       -1.8440165869
C                -5.4931623389        0.9826576185       -2.5442468340
N                -6.4346099289        1.6635126444       -1.6586070387
C                -7.6477032907        0.9823702852       -1.1941031779
C                -7.4942506988       -0.1517446221       -0.1393078692
C                -8.8138645254       -0.9545270099       -0.0312032190
O                -9.9302281339       -0.1699890288       -0.4313373405
C                -9.9129028914        0.1033372945       -1.8300885219
C                -8.4987389974        0.4475871802       -2.3549031827
C                -5.7252150098        2.4503413512       -0.6607712007
C                 1.5593520742       -0.6658530655        2.6532325710
C                 1.4128997652        0.4644423176        3.3667814680
C                 2.2110917462       -1.8871621501        3.2668193229
C                 2.8265576393       -2.0374678970        0.2212485367
C                 3.0017858380       -3.3969659256       -0.0630571087
C                 4.2982893196       -3.9153601768       -0.0241568577
C                 5.3716520717       -3.0916109256        0.2816337656
C                 5.1047836109       -1.7269268294        0.5466426262
N                 6.1080506741       -0.8429980937        0.8595933786
C                 7.5006352061       -1.2399079174        1.0607584427
C                 8.2062214835        0.0503179406        1.5068793895
C                 7.0712543460        0.8939230095        2.1035559202
C                 7.4073593105        2.3733060314        2.2366246221
O                 8.4798677432        2.8641685626        1.9972589088
O                 6.3924197544        3.1570441119        2.7095133461
C                 5.8340875178        0.5484222518        1.2204498205
C                 5.6232166173        1.4487860936       -0.0028016977
O                 6.8093031821        1.4963966955       -0.7706229057
C                 6.6954936565        2.3329245949       -1.9038140270
N                 3.8556207233       -1.2234385721        0.5116063994
H                 0.4382273455       -1.9259313684       -3.0814816911
H                 2.1105013402       -2.3026214208       -2.3900232878
H                -0.3268793414       -1.0775228504       -0.9539404523
H                -1.4853238777       -1.4663490214        1.6357490204
H                -1.2199092458       -0.2027771332        2.8697271976
H                -2.6342357229        1.8080624431        2.8366745276
H                -4.5397841216        3.0289024716        1.7702010598
H                -4.9427304667       -0.9451997159       -1.6600023956
H                -3.6293255581       -0.1499321006       -2.4957496367
H                -6.0441971513        0.4420251501       -3.3186911473
H                -4.9251475322        1.7693930745       -3.0622462320
H                -8.2420282373        1.7712217232       -0.7148209861
H                -7.2256263801        0.2825326498        0.8302686763
H                -6.6837030699       -0.8324281205       -0.4194919874
H                -9.0142227664       -1.2621575019        0.9990371540
H                -8.7611746152       -1.8704325437       -0.6433672460
H               -10.3295533715       -0.7526808956       -2.3858967868
H               -10.5916142153        0.9520564088       -1.9632895355
H                -8.5625133965        1.1937164127       -3.1544032994
H                -8.0296187333       -0.4466234452       -2.7853502729
H                -5.2924265354        3.3333072283       -1.1610543149
H                -6.4464776355        2.8370780568        0.0686932322
H                 0.9382426254        1.3439763776        2.9432852454
H                 1.7734044012        0.5363717081        4.3896108082
H                 3.1985041354       -2.0854169539        2.8418497710
H                 2.3294260480       -1.7497656793        4.3465051393
H                 1.6034581049       -2.7838774413        3.0991547826
H                 2.1485241463       -4.0220434805       -0.3003099063
H                 4.4711295689       -4.9688465086       -0.2301475478
H                 6.3820729707       -3.4823662569        0.3097682046
H                 7.5667035717       -2.0246888036        1.8304429632
H                 7.9372145920       -1.6444444903        0.1386786418
H                 9.0058750138       -0.1415575681        2.2269317255
H                 8.6305912131        0.5805722637        0.6538403885
H                 6.8472634618        0.5314865719        3.1188128407
H                 5.6006118716        2.6165073902        2.8698884848
H                 4.8998922835        0.5869759995        1.7946334323
H                 5.3405419924        2.4621684571        0.3309243755
H                 4.7858973568        1.0437044340       -0.5886386774
H                 5.9013294703        1.9863598393       -2.5837406091
H                 7.6546548712        2.2986373791       -2.4264546950
H                 6.4810417897        3.3746188356       -1.6182171562



