%chk=calculation/no_transfer_pubchem_sampling_1_b3lyp/145165215_rwf.chk
%rwf=calculation/no_transfer_pubchem_sampling_1_b3lyp/145165215_rwf.rwf
%nprocshared=14
%mem=3GB
#p b3lyp/6-31g(d) 6D 10F nosymm GFInput td=(50-50,nstate=2) SCF=XQC 

Gaussian input prepared by ASE

0 1
C                 6.5343826156        0.7429682815       -0.6790603095
O                 5.7899043170        1.0461200792        0.4864607559
C                 4.4310107383        0.8870270673        0.4537937082
C                 3.7488709813        1.2008577820        1.6326881398
C                 2.3651603454        1.0633158713        1.6759432235
C                 1.6241516112        0.6142311582        0.5791636490
C                 0.1089105469        0.5018058451        0.6324976584
N                -0.3854926220        0.2084201268        1.9820561615
C                -0.1210164103       -1.1666087911        2.3848400083
C                -1.7653393794        0.6426647411        2.2284221940
C                -2.8701847122       -0.0629889466        1.4447921533
C                -3.4479346129       -1.2501912030        1.9100002648
C                -4.4473634047       -1.9217579671        1.2028181012
C                -4.9027268460       -1.4048010547       -0.0089690927
C                -4.3356837167       -0.2282867793       -0.4805166879
O                -4.8020616800        0.4015825955       -1.6592740404
C                -4.4530351196       -0.1623338109       -2.8486184617
F                -3.1185720219       -0.2683412612       -2.9859089057
F                -4.9731469581       -1.3922874532       -3.0094073561
F                -4.9214390813        0.6255932841       -3.8170269640
C                -3.3384296072        0.4560712020        0.2251862433
O                -2.8376996879        1.6331389450       -0.2428470982
C                 2.3290270461        0.3116841124       -0.5996205009
O                 1.5679809240       -0.1031858296       -1.6622899972
C                 2.2150719067       -0.4678962245       -2.8675865188
C                 3.7236420033        0.4410090093       -0.6696588010
H                 6.4252680479       -0.3112282071       -0.9689087722
H                 7.5788211735        0.9388601283       -0.4280862052
H                 6.2420366446        1.3795060485       -1.5255821073
H                 4.3141130522        1.5462352699        2.4920751456
H                 1.8235665746        1.2955417486        2.5879913625
H                -0.3375489861        1.4520311124        0.3171164327
H                -0.2267213945       -0.2462957759       -0.1034884077
H                -0.4193870269       -1.3087364370        3.4304276861
H                -0.6466290393       -1.9196582268        1.7696740981
H                 0.9527731664       -1.3615686167        2.3098891683
H                -1.8139904382        1.7175582452        2.0308798278
H                -1.9597701382        0.4973536218        3.2984950503
H                -3.1122759201       -1.6486015764        2.8641504913
H                -4.8776006541       -2.8372004295        1.5968068052
H                -5.6859101405       -1.8902380720       -0.5798891750
H                -3.3136651472        1.8517919358       -1.0622594556
H                 2.9134652185       -1.3024505697       -2.7177128473
H                 1.4222805604       -0.7810872429       -3.5499285019
H                 2.7570525829        0.3790510728       -3.3098921528
H                 4.2461366879        0.2013281910       -1.5851269695



