%chk=./calculation/no_transfer_pubchem_sampling_1_b3lyp/14844823.chk
%nprocshared=7
%mem=6GB
#p b3lyp/6-31g(d) opt SCF=XQC 

Gaussian input prepared by ASE

0 1
C                 0.4086964962       -2.6223980211        0.9621522572
C                 0.5866484581       -1.3252723414        0.2369753684
O                 1.6463406175       -0.6356218657        0.7132497245
C                 1.9362259803        0.5845709943        0.1959702935
C                 3.0070696054        1.2832006952        0.7531059030
C                 3.3369004837        2.5260683340        0.2593381228
C                 2.6113883081        3.0870389284       -0.7883379965
C                 1.5562549886        2.3975275143       -1.3392948308
C                 1.2045294788        1.1350601477       -0.8574092117
C                 0.0690258221        0.3981856051       -1.4250913927
O                -0.5870751690        0.8105912327       -2.3692376121
C                -0.2078611611       -0.8810310362       -0.7619344634
C                -1.4181116239       -1.6269173605       -1.2466289209
C                -2.6115169766       -1.4877982821       -0.2931863436
C                -2.8374783280       -0.0284876892        0.1124910301
C                -1.8441277571        0.4589043241        1.1337617500
O                -1.2432486971        1.4992840273        1.0975024494
O                -1.7185892390       -0.3850498149        2.1760919116
H                 0.1527663746       -3.4196674042        0.2695990944
H                 1.3313833178       -2.8711905022        1.4803094204
H                -0.3900182027       -2.5368655040        1.6974584148
H                 3.5558958432        0.8348999951        1.5667340093
H                 4.1635958734        3.0688733252        0.6927273018
H                 2.8777776429        4.0635842852       -1.1627782149
H                 0.9700536661        2.8053159125       -2.1483986448
H                -1.6868017514       -1.1894679256       -2.2108027889
H                -1.1939894541       -2.6850319831       -1.3951295309
H                -2.4589414108       -2.0880467746        0.6037024712
H                -3.5047280681       -1.8586647345       -0.7983770070
H                -3.8256964710        0.0732542993        0.5681436018
H                -2.7827460013        0.6263297760       -0.7577016083
H                -1.1036266457       -0.0111761571        2.8265174422



