%chk=calculation/no_transfer_pubchem_sampling_1_b3lyp/15067637_rwf.chk
%rwf=calculation/no_transfer_pubchem_sampling_1_b3lyp/15067637_rwf.rwf
%nprocshared=14
%mem=3GB
#p b3lyp/6-31g(d) 6D 10F nosymm GFInput td=(50-50,nstate=2) SCF=XQC 

Gaussian input prepared by ASE

0 1
C                 8.9322391560       -1.7752722923        1.3461573935
C                 7.8351963839       -1.0057777285        2.0920639027
C                 6.4618608593       -1.0096509126        1.3980287072
C                 6.4296157623       -0.2709921074        0.0498840705
C                 5.0569886042       -0.2419663009       -0.6602231641
C                 4.1417698198        0.9537813410       -0.3286370781
C                 3.5898447021        1.0570216143        1.1060773248
C                 2.7162227564       -0.1169461790        1.5841287813
C                 1.4402016034       -0.4038063014        0.7742248689
O                 0.7613797968       -1.5413924747        1.3228227671
C                 0.4349410741        0.7508678287        0.7987653023
C                -0.9046261386        0.4580678625        0.1021967137
C                -0.7947303093        0.2067676809       -1.4069930026
C                -2.1544324596        0.0002558997       -2.1142586310
C                -3.0501736724        1.2288848873       -2.1161744632
C                -2.7040112836        2.2926170066       -2.9641645969
C                -3.4540664323        3.4645396674       -3.0217898673
C                -4.5852870216        3.5933207845       -2.2156995073
C                -4.9432891877        2.5455255923       -1.3710944280
C                -4.1971046384        1.3585380876       -1.3030569464
C                -4.6883551827        0.2498978976       -0.3892041305
C                -5.5915725686       -0.7702574151       -1.1155897670
C                -6.0566954859       -1.9470289580       -0.2448388093
C                -6.9806715047       -1.5458143056        0.9088263632
C                -7.5209375087       -2.7455460367        1.6795603044
O                -7.2992635004       -3.8980201904        1.4087175960
O                -8.3158418959       -2.4397712133        2.7455835377
H                 8.6365973194       -2.8185864088        1.1774139814
H                 9.8653703282       -1.7840117051        1.9210328790
H                 9.1544126106       -1.3317642976        0.3692381783
H                 8.1581870366        0.0339959462        2.2459800449
H                 7.7199264977       -1.4379099168        3.0952828684
H                 6.1422291968       -2.0512809574        1.2409324090
H                 5.7274639990       -0.5675637484        2.0821998851
H                 7.1541009696       -0.7477364114       -0.6224322421
H                 6.7875488422        0.7603414326        0.1906707552
H                 4.5298492750       -1.1889169992       -0.4747552317
H                 5.2306191896       -0.2137589943       -1.7440957989
H                 3.3005090421        0.9446324473       -1.0352252954
H                 4.6965440441        1.8779827973       -0.5450855256
H                 4.4229818657        1.1739626372        1.8107475781
H                 3.0132821471        1.9883084361        1.1828516658
H                 2.4141672231        0.0581647386        2.6254739880
H                 3.3210789031       -1.0362328660        1.5950701021
H                 1.7171466702       -0.6174847439       -0.2709643406
H                 1.3865423335       -2.2827803537        1.3248117477
H                 0.9004827171        1.6327155344        0.3388523971
H                 0.2411125088        1.0071817153        1.8495020518
H                -1.5737448787        1.3110635713        0.2746573662
H                -1.3658625952       -0.4125317809        0.5833431610
H                -0.2695843505        1.0482471061       -1.8821007103
H                -0.1826271208       -0.6859079379       -1.5892104993
H                -1.9562593655       -0.2849493684       -3.1560645107
H                -2.6625245656       -0.8566997907       -1.6606836673
H                -1.8243102460        2.1908614116       -3.5970152396
H                -3.1593529200        4.2682127630       -3.6915801414
H                -5.1833720686        4.5003996507       -2.2439041085
H                -5.8252109116        2.6449253012       -0.7408878315
H                -5.2465623291        0.7068350239        0.4376313580
H                -3.8466612403       -0.2799404614        0.0714878069
H                -5.0474897640       -1.1719098318       -1.9797598126
H                -6.4631272864       -0.2432414579       -1.5293832546
H                -5.1881790956       -2.4777820709        0.1647929177
H                -6.5849647945       -2.6765403724       -0.8685808532
H                -7.8393044273       -0.9700667270        0.5296756746
H                -6.4651153810       -0.8861152951        1.6210489073
H                -8.3950991069       -1.4754127499        2.8337190987



