%chk=./calculation/no_transfer_pubchem_sampling_1_b3lyp/15067637.chk
%nprocshared=7
%mem=6GB
#p b3lyp/6-31g(d) opt SCF=XQC 

Gaussian input prepared by ASE

0 1
C                 8.7180067227       -1.7644091060        1.2919847510
C                 7.6467125121       -0.9414129862        1.9979799410
C                 6.2515452801       -1.1147697173        1.3952658968
C                 6.1294243314       -0.5321143257       -0.0125846749
C                 4.7114986142       -0.6223392309       -0.5959490900
C                 3.9024109845        0.6728509314       -0.4901823403
C                 3.5316032636        1.1083057373        0.9283874576
C                 2.6377128667        0.1322621800        1.6955473754
C                 1.3110076892       -0.2337477006        1.0152306585
O                 0.5916557401       -1.1512985045        1.8244033324
C                 0.4031969412        0.9797017407        0.8076053956
C                -0.9016896894        0.6263566183        0.0930985944
C                -0.7141633615        0.3697891563       -1.3998540081
C                -2.0444251703        0.0920541251       -2.1136544578
C                -2.9529883789        1.2924392310       -2.0783263319
C                -2.6295990599        2.3701393036       -2.8966819504
C                -3.3906244663        3.5226384278       -2.9146059643
C                -4.5058521895        3.6136249667       -2.1008328323
C                -4.8389693987        2.5490952331       -1.2856957214
C                -4.0771832036        1.3857867527       -1.2553035869
C                -4.5353212274        0.2581363935       -0.3696725980
C                -5.4221771559       -0.7138793763       -1.1589842588
C                -5.7779490884       -1.9753762706       -0.3753503887
C                -6.6373044673       -1.6929094398        0.8547827080
C                -7.1520722503       -2.9734293317        1.4837809216
O                -6.9632449992       -4.0718789420        1.0542555278
O                -7.8776842595       -2.7903235554        2.6077969721
H                 8.4398576322       -2.8161787750        1.2751284347
H                 9.6688002859       -1.6703160938        1.8118781771
H                 8.8592472835       -1.4287360854        0.2680293115
H                 7.9226504982        0.1153781725        1.9674132181
H                 7.6100966145       -1.2414525545        3.0482836820
H                 6.0062221743       -2.1797068979        1.3650219262
H                 5.5319493330       -0.6279488088        2.0550826218
H                 6.8131149745       -1.0732207010       -0.6682291200
H                 6.4497909233        0.5120059082        0.0010123706
H                 4.1702210483       -1.4395787932       -0.1170088656
H                 4.7835119020       -0.8684575323       -1.6580720945
H                 2.9886999621        0.5622838954       -1.0779010459
H                 4.4824184244        1.4777612244       -0.9495863819
H                 4.4452326257        1.2590528953        1.5065875090
H                 3.0318394996        2.0772250031        0.8678579855
H                 2.4051277716        0.5661533801        2.6718215759
H                 3.1894811273       -0.7954733260        1.8750247208
H                 1.5224413440       -0.7076641357        0.0444776162
H                 1.1690422480       -1.8897660251        2.0442725231
H                 0.9361413419        1.7389864568        0.2352779093
H                 0.1699237061        1.3871551979        1.7928499403
H                -1.6047337349        1.4528627534        0.2192648676
H                -1.3224347518       -0.2583496950        0.5725955967
H                -0.2379966237        1.2421497737       -1.8544780442
H                -0.0558793569       -0.4879676244       -1.5494636932
H                -1.8316623752       -0.1516031472       -3.1581256731
H                -2.5160990440       -0.7785343431       -1.6618326893
H                -1.7627781473        2.2961108302       -3.5386835728
H                -3.1175838618        4.3437745513       -3.5610739181
H                -5.1131339384        4.5068753218       -2.1026888419
H                -5.7115434043        2.6206793375       -0.6506571182
H                -5.1032537271        0.6770383295        0.4631121582
H                -3.6841641338       -0.2806597345        0.0455335039
H                -4.8983777305       -1.0072078232       -2.0708484197
H                -6.3359330822       -0.1974238804       -1.4629556715
H                -4.8660529194       -2.4857730521       -0.0606893335
H                -6.3247761891       -2.6612538188       -1.0247750742
H                -7.5014107291       -1.0818390950        0.5735387152
H                -6.0637712340       -1.1457664260        1.6079949979
H                -7.9577503166       -1.8593579727        2.8525698681



