%chk=calculation/no_transfer_pubchem_sampling_1_b3lyp/151261922_rwf.chk
%rwf=calculation/no_transfer_pubchem_sampling_1_b3lyp/151261922_rwf.rwf
%nprocshared=14
%mem=3GB
#p b3lyp/6-31g(d) 6D 10F nosymm GFInput td=(50-50,nstate=2) SCF=XQC 

Gaussian input prepared by ASE

0 1
C                -2.8112366363       -2.0601311500        0.6289015007
C                -1.7004410293       -1.5368398692        0.0939474996
C                -1.2615326315       -0.1348909498        0.1465621656
C                -2.0653916702        0.9309918952        0.6149009057
C                -1.6144294151        2.2531548893        0.6429318056
C                -0.3284395572        2.6130793309        0.2013634732
C                 0.4616179888        1.5708361095       -0.2585388088
C                 0.0098873525        0.2522173040       -0.2846682495
C                 1.3162027557       -0.2812814030       -0.8708945463
C                 2.1083456735       -1.2540600291       -0.0112520896
O                 3.3776834571       -1.4408935704       -0.6295958500
C                 1.8204782750        1.2176516049       -0.8449779759
H                -3.0387893685       -3.1165082800        0.5229771866
H                -3.5278085730       -1.4676996821        1.1915789944
H                -1.0246304805       -2.2040139102       -0.4409206048
H                -3.0767115556        0.7227132252        0.9533931165
H                -2.2858952742        3.0244850211        1.0122674599
H                 0.0019280849        3.6482813979        0.2249662516
H                 1.2338295919       -0.6896957986       -1.8859806920
H                 1.5613900300       -2.2077163623        0.0734081354
H                 2.2124212888       -0.8428105359        1.0062726412
H                 3.9037761306       -2.0236957431       -0.0616287480
H                 2.6863662184        1.3847681206       -0.1946272671
H                 2.0413803441        1.6420603853       -1.8303893040



