%chk=./calculation/no_transfer_pubchem_sampling_1_b3lyp/151261922.chk
%nprocshared=7
%mem=6GB
#p b3lyp/6-31g(d) opt SCF=XQC 

Gaussian input prepared by ASE

0 1
C                -2.7407792947       -2.0510895583        0.6496257434
C                -1.6818470046       -1.5279475921        0.0445269866
C                -1.2482084610       -0.1390574165        0.1127731576
C                -2.0473812401        0.9152249834        0.5897471925
C                -1.6044670027        2.2243946526        0.6322952117
C                -0.3279826643        2.5959431526        0.2031565321
C                 0.4563531251        1.5707651561       -0.2632028505
C                 0.0090614980        0.2527577010       -0.3100592483
C                 1.3119243771       -0.2545514885       -0.8818833873
C                 2.0742861016       -1.2287593831        0.0052084025
O                 3.3177250528       -1.5122920339       -0.6000480574
C                 1.8044003897        1.2241176022       -0.8387293096
H                -2.9889896190       -3.0937971628        0.5478685572
H                -3.3961378522       -1.4685576373        1.2743904271
H                -1.0433167846       -2.1643022031       -0.5561689684
H                -3.0512577415        0.6994507050        0.9232675132
H                -2.2723621978        2.9865855312        1.0083015371
H                -0.0034310369        3.6248313636        0.2437061957
H                 1.2467229309       -0.6684252337       -1.8896082520
H                 1.4842910283       -2.1501730184        0.1254971990
H                 2.2163334577       -0.7834982795        1.0010360640
H                 3.8165115003       -2.1088623921       -0.0333596214
H                 2.6506763940        1.3954453217       -0.1765565929
H                 2.0178760440        1.6617992301       -1.8117874319



