%chk=./calculation/no_transfer_pubchem_sampling_1_b3lyp/151821909.chk
%nprocshared=7
%mem=6GB
#p b3lyp/6-31g(d) opt SCF=XQC 

Gaussian input prepared by ASE

0 1
C                -2.4706761166        0.2225293014       -3.6489779248
O                -3.5358510497        0.0025384205       -2.7468033040
C                -3.3664503999        0.3203510015       -1.4465381532
C                -4.4762189132        0.1038267142       -0.6195750641
C                -4.4068768480        0.3880704580        0.7250350211
C                -3.2330989952        0.8997958791        1.2482922056
S                -3.1270533883        1.1619832200        3.0055587512
O                -4.4021898102        1.5401947657        3.5291914869
O                -1.9752460026        1.9693020554        3.3035848145
N                -2.7485165188       -0.3655380035        3.6882461494
N                -1.4273411231       -0.7121674316        3.3935770037
C                -1.1710771951       -1.3411517253        2.1927834874
O                -2.0905370031       -1.8319898966        1.5504548787
C                 0.2304745742       -1.4577543084        1.7965942837
C                 1.2912384745       -1.1274681663        2.5620240410
C                 2.6186715313       -1.2324209851        2.0539053500
C                 2.8026248359       -1.5769511886        0.7573003862
N                 1.7950810598       -1.9387449991       -0.0613317459
C                 1.9850296330       -1.9543183361       -1.4947201747
C                 1.6437245705       -0.5298071872       -1.9201697297
O                 0.5283192663       -0.2499897038       -2.3083432086
C                 2.6571742246        0.5024550918       -1.6099680338
C                 4.0193799577        0.3121807557       -1.8326880824
C                 4.9193717497        1.3120290787       -1.5144113257
C                 4.4746110155        2.5009860358       -0.9584103548
C                 3.1210559777        2.7005896043       -0.7403761418
C                 2.2158335785        1.7125286088       -1.0752635922
C                 0.4149677559       -2.0165817200        0.4030229597
C                -2.1310616611        1.1246878199        0.4507047923
C                -2.1915533701        0.8404669185       -0.9022633038
H                -2.8240221861       -0.1451147253       -4.6108080300
H                -2.2376143221        1.2883327653       -3.7315659699
H                -1.5709860979       -0.3214887597       -3.3549423275
H                -5.3730669817       -0.2977034176       -1.0630751657
H                -5.2475145871        0.2313201113        1.3818393319
H                -3.3638163810       -1.0900159624        3.3276309685
H                -0.8039923132        0.0080915854        3.7330855144
H                 1.1608599335       -0.7689462130        3.5708597818
H                 3.4598589501       -1.0055958007        2.6840399248
H                 3.7895026557       -1.5951532948        0.3167035843
H                 1.2898197325       -2.6643193093       -1.9490787112
H                 3.0117902488       -2.2345767106       -1.7286797128
H                 4.3765866269       -0.5996502683       -2.2886325103
H                 5.9728359625        1.1636098419       -1.6994202631
H                 5.1834226131        3.2738260371       -0.7019425676
H                 2.7713355507        3.6277471168       -0.3125361171
H                 1.1582694563        1.8554022785       -0.9111570888
H                -0.2444691793       -1.4646446247       -0.2820316791
H                 0.0862985013       -3.0685176686        0.3773676620
H                -1.2354046112        1.5275749457        0.8992356438
H                -1.3235053818        1.0001869951       -1.5205627403



