%chk=calculation/no_transfer_pubchem_sampling_1_b3lyp/151821909_rwf.chk
%rwf=calculation/no_transfer_pubchem_sampling_1_b3lyp/151821909_rwf.rwf
%nprocshared=14
%mem=3GB
#p b3lyp/6-31g(d) 6D 10F nosymm GFInput td=(50-50,nstate=2) SCF=XQC 

Gaussian input prepared by ASE

0 1
C                -2.2572277049        0.8740539974       -3.5910499248
O                -3.3822585860        0.6333112108       -2.7498915490
C                -3.2458597108        0.8171452461       -1.4141957702
C                -4.3811294174        0.5080179707       -0.6432562249
C                -4.3468314155        0.6412344592        0.7341382465
C                -3.1771275715        1.1026467852        1.3532141528
S                -3.1032119439        1.1798944137        3.1308951532
O                -4.4666853673        1.2632757063        3.6561340203
O                -2.0439264934        2.1196184877        3.5074468359
N                -2.5300129628       -0.3599592405        3.7356681467
N                -1.2500550708       -0.6937669544        3.3025192468
C                -1.0511881420       -1.5427943993        2.2332345607
O                -2.0078333694       -1.9826600058        1.5941405650
C                 0.3436925277       -1.9066664305        1.9228600440
C                 1.3628456005       -1.9423883524        2.8201242515
C                 2.6974626070       -2.2832638156        2.4056591092
C                 2.9621439870       -2.3123371607        1.0688011959
N                 1.9821582561       -2.1430426136        0.1306813365
C                 2.2855962737       -2.1033429316       -1.2903447225
C                 1.7355111942       -0.8205910271       -1.9456024556
O                 0.6992070276       -0.8984595080       -2.5926145171
C                 2.4486053459        0.4804540913       -1.7746673956
C                 3.5676873332        0.6421812772       -0.9422090179
C                 4.1932799519        1.8833211069       -0.8341229731
C                 3.7143238690        2.9752639467       -1.5599483113
C                 2.6038233667        2.8246198295       -2.3960004466
C                 1.9758034573        1.5881657829       -2.5001330800
C                 0.5863852462       -2.4198621672        0.5164571875
C                -2.0537333112        1.4346500247        0.5965697751
C                -2.0821036157        1.2912163013       -0.7900279677
H                -2.5875392113        0.6231700904       -4.6004401506
H                -1.9612581719        1.9312796621       -3.5615473396
H                -1.4058919623        0.2428545057       -3.3130998442
H                -5.2726583878        0.1584307085       -1.1534460968
H                -5.2187586526        0.4042050277        1.3343910809
H                -3.1696600106       -1.0981540662        3.4317382888
H                -0.5013520468       -0.2572022745        3.8182952087
H                 1.1926143351       -1.6929346538        3.8650920855
H                 3.4974778079       -2.4094526193        3.1241341114
H                 3.9726781289       -2.4268840236        0.6840639516
H                 1.8132629831       -2.9463349018       -1.8119389393
H                 3.3693781764       -2.1747267300       -1.4236236919
H                 3.9463590315       -0.1890107318       -0.3588092087
H                 5.0530324661        1.9982825810       -0.1802821032
H                 4.2047841836        3.9410864876       -1.4753608704
H                 2.2319863488        3.6718965428       -2.9652965201
H                 1.1187512405        1.4511138513       -3.1509421931
H                -0.0843132926       -1.9287270182       -0.1918191259
H                 0.3880974100       -3.5062613803        0.4404504182
H                -1.1649583441        1.8140442689        1.0890065960
H                -1.2013753934        1.5433856427       -1.3682801282



