%chk=./calculation/no_transfer_pubchem_sampling_1_b3lyp/28485152.chk
%nprocshared=7
%mem=6GB
#p b3lyp/6-31g(d) opt SCF=XQC 

Gaussian input prepared by ASE

0 1
C                 0.0453754091        3.6981988128       -0.4067920042
S                -0.7566260534        2.1652941183       -0.9340515378
C                 0.5737231244        1.0503352245       -0.7285667740
N                 1.6896216926        1.5387891988       -0.2869852462
C                 2.7045329580        0.6689028267       -0.1533500321
S                 4.2721422548        1.1143986134        0.4189054074
C                 4.8314663670       -0.5389459219        0.2411239288
C                 6.2333327549       -0.8792814962        0.5955507547
C                 3.8583877553       -1.3562160992       -0.2265056219
C                 2.6310587771       -0.6817664789       -0.4594801946
C                 1.3903381162       -1.2244955660       -0.9426908924
O                 1.1688533515       -2.3805009305       -1.2407512976
N                 0.3674744757       -0.2523083044       -1.0546038746
C                -0.9377800464       -0.7082008886       -1.5078583312
C                -1.9052705729       -0.8363948301       -0.3596330924
C                -1.5961451818       -1.6731772627        0.7083937048
C                -2.4614713787       -1.7918744239        1.7827604133
C                -3.6461860726       -1.0809660746        1.7983652436
C                -3.9680438685       -0.2486154175        0.7289182577
C                -5.2457429910        0.4955232351        0.7735603932
O                -6.0291919652        0.4589743810        1.6898454528
O                -5.4718938941        1.2376368851       -0.3224256164
C                -3.0941580129       -0.1258036440       -0.3473710548
H                 0.3707076636        3.5894262668        0.6222354794
H                 0.8957590513        3.8950419621       -1.0507103776
H                -0.7015687037        4.4801193779       -0.4979336061
H                 6.9323807507       -0.3025772506       -0.0092334104
H                 6.4113538683       -1.9383095104        0.4271753518
H                 6.4308920097       -0.6492484153        1.6420174805
H                 3.9847362353       -2.4075338372       -0.4095915385
H                -0.7663838238       -1.6901763672       -1.9625939303
H                -1.3192136974       -0.0128485271       -2.2600019549
H                -0.6762772469       -2.2391227925        0.6894808019
H                -2.2099236631       -2.4434344290        2.6058415896
H                -4.3374082295       -1.1562240571        2.6237352805
H                -6.3210122832        1.6975372185       -0.2330251254
H                -3.3478399305        0.5278434040       -1.1668990265



