%chk=calculation/no_transfer_pubchem_sampling_1_b3lyp/28485152_rwf.chk
%rwf=calculation/no_transfer_pubchem_sampling_1_b3lyp/28485152_rwf.rwf
%nprocshared=14
%mem=3GB
#p b3lyp/6-31g(d) 6D 10F nosymm GFInput td=(50-50,nstate=2) SCF=XQC 

Gaussian input prepared by ASE

0 1
C                 0.2150744068        3.9376704108       -0.6791489886
S                -0.6651340961        2.3681374308       -0.9756876640
C                 0.6648260811        1.2105371490       -0.7251712489
N                 1.8303570339        1.6704222744       -0.3569638586
C                 2.8039127382        0.7430243191       -0.1923222105
S                 4.4355368740        1.1491749686        0.2945782610
C                 4.9148880912       -0.5532906856        0.2412936555
C                 6.3191639358       -0.9521714555        0.5793372946
C                 3.8731841116       -1.3527648833       -0.1262442138
C                 2.6672324468       -0.6252421684       -0.3759362940
C                 1.3824974567       -1.1436579971       -0.7716666165
O                 1.0997798604       -2.3236849615       -0.9581018111
N                 0.3859404202       -0.1242875330       -0.9409779962
C                -0.9430373480       -0.5938252403       -1.3992154824
C                -1.9445819568       -0.8378916064       -0.2846454838
C                -1.6996107443       -1.8142933328        0.6935548336
C                -2.6339165931       -2.0572671934        1.7006998955
C                -3.8277783194       -1.3407850507        1.7389801522
C                -4.0889121625       -0.3746879551        0.7605599904
C                -5.3778155394        0.3612075206        0.8332962301
O                -6.2276842262        0.1964438617        1.6859491739
O                -5.5343827758        1.2652634121       -0.1696678674
C                -3.1449064021       -0.1258511501       -0.2456600335
H                 0.6126519046        3.9662871241        0.3356275782
H                 1.0265636032        4.0661975260       -1.3962057007
H                -0.5382289727        4.7182191182       -0.8142862832
H                 7.0501484327       -0.4870426105       -0.0935660905
H                 6.4242918958       -2.0379201851        0.4916446882
H                 6.5898976196       -0.6686592920        1.6039318335
H                 3.9453500591       -2.4302397769       -0.2218402726
H                -0.7410448091       -1.5260968210       -1.9298978567
H                -1.3322627733        0.1334047365       -2.1160168450
H                -0.7795195962       -2.3889983849        0.6494189074
H                -2.4316875061       -2.8151175382        2.4522729005
H                -4.5694398444       -1.5162551572        2.5111622866
H                -6.4050727952        1.6761140362       -0.0157617653
H                -3.3562815108        0.6279260910       -0.9964680974



