%chk=calculation/no_transfer_pubchem_sampling_1_b3lyp/29564220_rwf.chk
%rwf=calculation/no_transfer_pubchem_sampling_1_b3lyp/29564220_rwf.rwf
%nprocshared=14
%mem=3GB
#p b3lyp/6-31g(d) 6D 10F nosymm GFInput td=(50-50,nstate=2) SCF=XQC 

Gaussian input prepared by ASE

0 1
O                -4.8875425604        1.7157156441       -0.3635090051
C                -5.2823630574        0.5460166523        0.3657821452
C                -4.9662642430       -0.6469480158       -0.5333310544
C                -3.4580577562       -0.7321631307       -0.8772866035
C                -2.5364695182       -0.1447125445        0.2308170373
N                -1.1754536506       -0.6986704736        0.2550126256
C                -0.3274188899       -0.3735069031       -0.9032406621
C                 0.7073470299       -1.5013616913       -1.1382430096
C                 1.5995857545       -1.8327152720        0.0664396168
C                 2.9203486390       -2.5774956535       -0.2053893157
C                 3.9374212335       -1.8914351825       -1.1543063895
C                 3.9872718463       -0.3524440085       -1.1217898554
C                 4.2124131240        0.3363229861        0.2391638005
C                 3.7273720770        1.8127950353        0.2381160978
C                 2.8271294866        2.2171977322        1.4227462718
C                 1.4540692926        1.5274448059        1.5965601974
C                 0.3546851051        1.8203997793        0.5489559934
C                 0.2890449400        1.0734672149       -0.8090504751
C                -3.1927063619       -0.3311980277        1.6062852895
C                -4.5377900897        0.4212012837        1.7158486262
H                -5.0454968697        2.4839191561        0.2070082337
H                -6.3673180478        0.5863195047        0.5541725035
H                -5.5649837928       -0.5864183653       -1.4488182366
H                -5.2882998326       -1.5536984602       -0.0048449761
H                -3.1902148201       -1.7865443186       -1.0359414007
H                -3.2697542558       -0.2158031653       -1.8233555243
H                -2.4432806635        0.9313929612        0.0499161282
H                -1.2478894162       -1.7129575742        0.3335730829
H                -0.9284354533       -0.3633307529       -1.8294198149
H                 1.3183344547       -1.2093454066       -2.0006640486
H                 0.1646090718       -2.4045963962       -1.4569856364
H                 1.0230159205       -2.4162958090        0.7959685426
H                 1.8367062622       -0.9004448359        0.5744985469
H                 2.7117528889       -3.5836443822       -0.5957365585
H                 3.3979208578       -2.7365533716        0.7710119434
H                 3.7163882015       -2.1808275353       -2.1908879678
H                 4.9332243083       -2.3047012276       -0.9419079344
H                 4.7611761328       -0.0146657398       -1.8255185575
H                 3.0451860483        0.0206661253       -1.5363104232
H                 3.6920583014       -0.2165135561        1.0281262865
H                 5.2759025678        0.2878760895        0.5076674566
H                 4.5950138809        2.4856484040        0.2359180561
H                 3.1991791573        2.0234389324       -0.7003830270
H                 3.3938939542        2.0602959463        2.3526386672
H                 2.6540687884        3.3019808871        1.3612232717
H                 1.0640923024        1.8878641234        2.5591515093
H                 1.5734980149        0.4497080649        1.7374101515
H                -0.6089781694        1.6772193367        1.0478253282
H                 0.4101923151        2.8937672817        0.3124005020
H                 1.2751875299        1.0595350804       -1.2848306968
H                -0.3230812714        1.7117841254       -1.4598014047
H                -2.4989609566       -0.0025208029        2.3870532595
H                -3.3560147958       -1.4068615538        1.7732078393
H                -4.3739463957        1.4331106930        2.1129616383
H                -5.1873656199       -0.0867126889        2.4402429287



