%chk=./calculation/no_transfer_pubchem_sampling_1_b3lyp/29564220.chk
%nprocshared=7
%mem=6GB
#p b3lyp/6-31g(d) opt SCF=XQC 

Gaussian input prepared by ASE

0 1
O                -4.9964192059        1.3804157427       -0.6152384721
C                -5.1934986473        0.4182582600        0.4025678086
C                -4.8358971610       -0.9480314667       -0.1795256082
C                -3.3823390096       -0.9801025048       -0.6646717197
C                -2.4664443197       -0.0710428653        0.1829335123
N                -1.0768866448       -0.4867895686        0.2050769152
C                -0.3164625298       -0.2224118964       -1.0089931680
C                 0.6328078710       -1.3932063319       -1.3438711830
C                 1.4995660333       -1.7980323583       -0.1531574285
C                 2.7953937154       -2.5593089801       -0.4415545928
C                 3.8913268901       -1.8152354566       -1.2250071116
C                 3.9614482869       -0.2969024125       -1.0420361864
C                 4.0917369761        0.2299532455        0.3914416360
C                 3.6393028454        1.6998803866        0.4984509836
C                 2.6650823258        2.0022810183        1.6433726408
C                 1.2409205441        1.4313601072        1.5668862939
C                 0.3688678837        1.9228606940        0.4041051217
C                 0.4303619722        1.1444728702       -0.9181124852
C                -2.9981955272       -0.0231625906        1.6163228837
C                -4.3452777020        0.7017039571        1.6573471903
H                -5.1731396234        2.2560730650       -0.2558881833
H                -6.2605556347        0.4185094524        0.6863135406
H                -5.5060082987       -1.1682250644       -1.0110096841
H                -5.0016576050       -1.6966479164        0.5963114408
H                -3.0128888546       -2.0085963817       -0.6161984648
H                -3.3440748620       -0.6600252363       -1.7057340244
H                -2.4998073370        0.9410506561       -0.2313600457
H                -1.0283878100       -1.4687699920        0.4498760979
H                -1.0053689398       -0.1447354391       -1.8668763522
H                 1.2570262293       -1.0962347127       -2.1874064046
H                 0.0340969226       -2.2466759615       -1.6756388801
H                 0.9087172825       -2.4210213470        0.5236535548
H                 1.7474934014       -0.8911640789        0.3814632804
H                 2.5642773192       -3.4837603964       -0.9770898264
H                 3.2046328250       -2.8501378190        0.5298157624
H                 3.7475777145       -1.9950874169       -2.2937778391
H                 4.8531185513       -2.2588607160       -0.9557680279
H                 4.8083780881        0.0718248063       -1.6278167363
H                 3.0666935435        0.1260995919       -1.4945068227
H                 3.5059543473       -0.3803020720        1.0750909082
H                 5.1313852897        0.1385320694        0.7127095294
H                 4.5172159417        2.3335334369        0.6470829489
H                 3.1859350102        2.0210021416       -0.4393503056
H                 3.1138267460        1.6502895181        2.5769889564
H                 2.5802542108        3.0905476368        1.7189827943
H                 0.7496492298        1.7408380041        2.4941476061
H                 1.2517260224        0.3454063854        1.5818639955
H                -0.6665152595        1.9297988431        0.7410580556
H                 0.6473846521        2.9578338112        0.1852887539
H                 1.4703844515        0.9910768372       -1.1860810980
H                 0.0042443044        1.7992913271       -1.6826458208
H                -2.2750814963        0.4869597361        2.2534427903
H                -3.1036529770       -1.0432833234        1.9900221570
H                -4.1784832338        1.7801852908        1.7259546189
H                -4.8997417483        0.3977164146        2.5468956939



