%chk=calculation/no_transfer_pubchem_sampling_1_b3lyp/2993493_rwf.chk
%rwf=calculation/no_transfer_pubchem_sampling_1_b3lyp/2993493_rwf.rwf
%nprocshared=14
%mem=3GB
#p b3lyp/6-31g(d) 6D 10F nosymm GFInput td=(50-50,nstate=2) SCF=XQC 

Gaussian input prepared by ASE

0 1
C                 7.1495106777       -1.7132298581       -1.5163633316
C                 6.0192554014       -1.0871039909       -1.1903183642
C                 5.9699739229        0.3380555443       -0.7144064775
O                 5.3448185239        0.4690381713        0.5727860518
C                 3.9894298164        0.4982590834        0.6731888105
C                 3.0943309726        0.3935211668       -0.4010513805
C                 1.7208174891        0.4465509569       -0.1656519634
C                 1.2108314656        0.5992555412        1.1300280392
C                -0.2438599129        0.6769318926        1.4638004506
O                -0.6352893125        1.1143126807        2.5412732075
N                -1.0929047336        0.2061951627        0.4695848447
C                -2.4818623962        0.2023101149        0.4369382881
C                -3.2607800646        0.7147579487        1.5021921368
C                -4.6402365752        0.7136127936        1.4530001927
C                -5.3325744623        0.2005690747        0.3399159424
O                -6.6912627927        0.2493459618        0.4055644146
C                -7.4299258366       -0.2580087411       -0.6972781321
C                -4.6040679595       -0.3085353970       -0.7223677703
C                -3.1977071895       -0.3075614572       -0.6789613317
N                -2.5422607578       -0.8617393743       -1.8569341102
O                -3.2420491116       -1.2512597582       -2.7906118178
O                -1.2964474887       -0.9287872296       -1.8929145551
C                 2.1218353769        0.7168982591        2.1953841809
C                 3.4869513769        0.6609376374        1.9763869507
H                 7.1520433656       -2.7373610658       -1.8788518092
H                 8.1183494918       -1.2236796419       -1.4383320173
H                 5.0659501651       -1.6071792759       -1.2703266602
H                 6.9818798192        0.7258684299       -0.5709354379
H                 5.4610210850        0.9915708638       -1.4360741947
H                 3.4471902967        0.2734719890       -1.4184830345
H                 1.0595996679        0.3911035401       -1.0258487883
H                -0.6789234968       -0.2448943491       -0.3393497952
H                -2.7398818754        1.1053417020        2.3638863367
H                -5.2171381187        1.1106483556        2.2825465514
H                -8.4814406345       -0.1231748010       -0.4394475590
H                -7.2274682211       -1.3248566369       -0.8584647326
H                -7.2059718778        0.2956219665       -1.6183946768
H                -5.0737885472       -0.7146591566       -1.6058745473
H                 1.7277037432        0.8534204133        3.1967550091
H                 4.1943487071        0.7444284834        2.7952290796



