%chk=./calculation/no_transfer_pubchem_sampling_1_b3lyp/2993493.chk
%nprocshared=7
%mem=6GB
#p b3lyp/6-31g(d) opt SCF=XQC 

Gaussian input prepared by ASE

0 1
C                 6.8393583878       -1.7933769128       -1.6868676899
C                 5.8576118120       -1.1477519120       -1.0880789147
C                 5.9560265143        0.2765643126       -0.6192603131
O                 5.3279720634        0.4893038152        0.6313345111
C                 3.9787366947        0.5358174913        0.7151099364
C                 3.0930125755        0.4494267256       -0.3577732064
C                 1.7282678264        0.5193045603       -0.1483477600
C                 1.2100494079        0.6768828331        1.1348247940
C                -0.2331715859        0.7732075664        1.4595725971
O                -0.6315148434        1.2265942024        2.5134566936
N                -1.0616777004        0.2884467116        0.4701739701
C                -2.4335913433        0.2448397152        0.4262461251
C                -3.2263264185        0.6991674143        1.4935842857
C                -4.5943483151        0.6473014194        1.4473160205
C                -5.2649698423        0.1325997238        0.3248938715
O                -6.6169431890        0.1246937131        0.3853146516
C                -7.3349219737       -0.3817562037       -0.7174367723
C                -4.5115571302       -0.3179083503       -0.7387477151
C                -3.1101999417       -0.2666679073       -0.7037653208
N                -2.4489349248       -0.7513238212       -1.8645739810
O                -3.1234660737       -1.1839728640       -2.7777149228
O                -1.2204259758       -0.7175566916       -1.9168187778
C                 2.1051188476        0.7827307731        2.2043466864
C                 3.4612520085        0.7076841578        2.0042787625
H                 6.7279686843       -2.8099505690       -2.0215324886
H                 7.7925152215       -1.3278765959       -1.8766197406
H                 4.9096400851       -1.6318172740       -0.8966202712
H                 7.0019042797        0.5500865075       -0.4562576065
H                 5.5396563033        0.9565159559       -1.3772745951
H                 3.4521338853        0.3283115166       -1.3676899952
H                 1.0887675791        0.4674514131       -1.0173359394
H                -0.6174237235       -0.1000436866       -0.3614832980
H                -2.7257704677        1.0953284939        2.3613243082
H                -5.1861755101        1.0012141492        2.2761094283
H                -8.3860281787       -0.2913149365       -0.4500387244
H                -7.0959334923       -1.4335246269       -0.9009920469
H                -7.1391750524        0.2000111461       -1.6231143828
H                -4.9635020034       -0.7208760810       -1.6308966541
H                 1.7014196947        0.9204871264        3.1958145601
H                 4.1546458147        0.7817439892        2.8267579145



