%chk=calculation/no_transfer_pubchem_sampling_1_b3lyp/3153471_rwf.chk
%rwf=calculation/no_transfer_pubchem_sampling_1_b3lyp/3153471_rwf.rwf
%nprocshared=14
%mem=3GB
#p b3lyp/6-31g(d) 6D 10F nosymm GFInput td=(50-50,nstate=2) SCF=XQC 

Gaussian input prepared by ASE

0 1
C                 5.3229937513        0.4080205626       -1.5979038456
O                 4.7439332282       -0.8807352340       -1.5911239185
C                 3.7751890028       -1.0792029658       -0.5744827333
C                 2.4237702585       -0.4216792525       -0.8741677929
C                 1.3622257735       -0.7686287897        0.1721542465
N                 0.1006456278       -0.0881742815       -0.1186012160
C                -0.9907632635       -0.3956834752        0.8266709640
C                -0.9096915986        0.5378462992        2.0474715099
C                -1.3499283686        1.9355174451        1.6362828625
O                -2.7172653080        1.9525261795        1.2011888730
C                -3.1061229565        0.9416583928        0.3706703645
C                -4.3566972836        1.0910205155       -0.2453796517
C                -4.8403116724        0.0991006391       -1.0906406584
C                -4.0872500244       -1.0560441905       -1.3280171384
C                -2.8516516966       -1.2004368642       -0.7029240451
C                -2.3371706140       -0.2144295920        0.1500920471
H                 5.7689101869        0.6560988447       -0.6206270807
H                 4.6028278457        1.1974968858       -1.8597771020
H                 6.1137692244        0.3955160974       -2.3529325359
H                 3.6509904487       -2.1659953343       -0.5002896811
H                 4.1640980946       -0.7240647925        0.3960669326
H                 2.5229259846        0.6690373317       -0.9205253347
H                 2.0932686450       -0.7554282264       -1.8675649144
H                 1.2435063631       -1.8691017475        0.2345013559
H                 1.7092084752       -0.4443034674        1.1624763312
H                -0.2020152779       -0.3342997303       -1.0591547878
H                -0.9202843874       -1.4437915401        1.1716387465
H                 0.1127141865        0.5753952452        2.4397457721
H                -1.5585621993        0.1627578964        2.8487483251
H                -1.3071814074        2.6449480206        2.4663699236
H                -0.7101407266        2.2948801894        0.8202129886
H                -4.9243147465        1.9947225075       -0.0459249888
H                -5.8095103254        0.2264526493       -1.5657084867
H                -4.4648090862       -1.8357018949       -1.9830772806
H                -2.2673061540       -2.1052943233       -0.8635330504



