%chk=./calculation/no_transfer_pubchem_sampling_1_b3lyp/3153471.chk
%nprocshared=7
%mem=6GB
#p b3lyp/6-31g(d) opt SCF=XQC 

Gaussian input prepared by ASE

0 1
C                 5.2136021511        0.4477719682       -1.6541858506
O                 4.7271716511       -0.8633352791       -1.5105692141
C                 3.7595663058       -1.0237400410       -0.5007728673
C                 2.3984743448       -0.4055731627       -0.8345536785
C                 1.3443589576       -0.7977660674        0.1946571824
N                 0.0970876800       -0.1142689607       -0.0856837766
C                -0.9913811690       -0.4448127033        0.8328453473
C                -0.9267078894        0.4684123623        2.0615496240
C                -1.2725721543        1.8784882560        1.6046175724
O                -2.6030891467        1.9703895211        1.1341440071
C                -3.0309393060        0.9550143697        0.3405713824
C                -4.2667059325        1.1252527868       -0.2833748239
C                -4.7771999081        0.1415194671       -1.1039531280
C                -4.0647140662       -1.0289578213       -1.3142229674
C                -2.8478421742       -1.2058238493       -0.6850054192
C                -2.3174027229       -0.2293404563        0.1480580875
H                 5.5724477663        0.8432600751       -0.6958266267
H                 4.4543811585        1.1270538384       -2.0564415532
H                 6.0450066623        0.3895826786       -2.3542868266
H                 3.6513501304       -2.1064041836       -0.3886240825
H                 4.1315089788       -0.6091363611        0.4493812691
H                 2.4706312653        0.6826853676       -0.8575139547
H                 2.0932051121       -0.7469919215       -1.8262438846
H                 1.2265730280       -1.8974998526        0.2050789119
H                 1.6805871937       -0.4953638679        1.1912188965
H                -0.1922443323       -0.3195319745       -1.0377170831
H                -0.9238278484       -1.5015238079        1.1542954872
H                 0.0691419384        0.4589332345        2.5011047807
H                -1.6473252784        0.1296629501        2.8082929360
H                -1.2038646042        2.6003738344        2.4215930016
H                -0.5793253586        2.1639462965        0.8020883063
H                -4.8037335830        2.0439143773       -0.1070543387
H                -5.7334972593        0.2871985483       -1.5835442435
H                -4.4595329028       -1.8003255754       -1.9576606532
H                -2.2931886880       -2.1230640464       -0.8303268200



