%chk=./calculation/no_transfer_pubchem_sampling_1_b3lyp/3878955.chk
%nprocshared=7
%mem=6GB
#p b3lyp/6-31g(d) opt SCF=XQC 

Gaussian input prepared by ASE

0 1
C                 8.3252443920       -2.5736933055        1.8442465839
O                 7.0856182988       -2.0758725130        1.3663408565
C                 7.1266906938       -1.4501097663        0.1795865079
O                 8.1444489942       -1.3087526078       -0.4549597072
C                 5.7985984407       -0.9610778980       -0.2533923439
C                 4.6514171933       -1.1397106919        0.5153349971
C                 3.4308744849       -0.6671212243        0.0770979798
C                 3.3409782607       -0.0060342767       -1.1462584609
N                 2.1402099086        0.5026696558       -1.6485678491
C                 0.8909531368        0.4452723533       -1.1045123494
O                 0.6193592966       -0.0636488944       -0.0439809441
C                -0.1516611552        1.1106034256       -1.9997134517
C                -1.5299999001        1.1201383206       -1.3307556793
C                -1.9793178478       -0.3103706080       -1.0132186377
O                -2.0489120381       -1.2146177442       -1.8051119623
N                -2.2809807382       -0.3313466826        0.3157688562
C                -2.6911802993       -1.4824045994        1.0319496293
C                -2.1504782098       -1.7545274382        2.2837231335
C                -2.5572177178       -2.8744974035        2.9736564435
C                -3.4987118796       -3.7486268970        2.4257145333
O                -3.8237169579       -4.8262265353        3.1907992095
C                -4.7647891046       -5.7459280295        2.6930308208
C                -4.0283156963       -3.4734521382        1.1695828195
C                -3.6280056910       -2.3417941449        0.4805990167
C                -2.0276065465        0.9092801691        0.9281828242
O                -2.2190460536        1.1893940308        2.0820077020
N                -1.5729419114        1.7440837784       -0.0405432484
C                -1.2597899184        3.1292417127        0.2018199207
C                -2.1485464884        4.0449710066       -0.5988587036
C                -1.6182123859        5.0368160341       -1.4125319670
C                -2.4485339012        5.8622985549       -2.1527027907
C                -3.8213341093        5.7020359171       -2.1010825382
C                -4.3370702442        4.7073142129       -1.2886658249
F                -5.6728012335        4.5396486127       -1.2307782709
C                -3.5268700269        3.8793648163       -0.5367253755
C                 4.4899146902        0.1727265147       -1.9192812882
C                 5.7051091237       -0.2997462707       -1.4769958036
H                 8.1156916923       -3.0445546319        2.8012276005
H                 9.0407965516       -1.7576429585        1.9658175515
H                 8.7393653348       -3.2996282532        1.1412561460
H                 4.7213360487       -1.6525276378        1.4611410116
H                 2.5449448895       -0.8083221402        0.6725573014
H                 2.2234759644        0.9380656031       -2.5578271355
H                -0.2378012161        0.5315805980       -2.9223907019
H                 0.1567351099        2.1280683467       -2.2491379971
H                -2.2507244057        1.5862758591       -2.0194246143
H                -1.4210210633       -1.0855932854        2.7089830719
H                -2.1533181765       -3.1026680115        3.9469235194
H                -5.7389059950       -5.2747263028        2.5265695639
H                -4.4210189767       -6.2097698545        1.7628390019
H                -4.8632372232       -6.5115841751        3.4610496282
H                -4.7552994914       -4.1271407617        0.7147705526
H                -4.0399228413       -2.1363567017       -0.4945253944
H                -1.4186205585        3.2866706480        1.2739141926
H                -0.2050164858        3.3224050391       -0.0246256460
H                -0.5475323128        5.1719717742       -1.4609313057
H                -2.0236711803        6.6333016848       -2.7769770393
H                -4.4874493819        6.3294929852       -2.6709894788
H                -3.9644585991        3.1211494304        0.0943999497
H                 4.4214193512        0.6837412420       -2.8697179878
H                 6.6008541058       -0.1685089432       -2.0644634283



