%chk=calculation/no_transfer_pubchem_sampling_1_b3lyp/42439690_rwf.chk
%rwf=calculation/no_transfer_pubchem_sampling_1_b3lyp/42439690_rwf.rwf
%nprocshared=14
%mem=3GB
#p b3lyp/6-31g(d) 6D 10F nosymm GFInput td=(50-50,nstate=2) SCF=XQC 

Gaussian input prepared by ASE

0 1
C                -4.8546676780        2.2203124428       -1.4807781688
C                -4.4208827709        1.2256693822       -0.4020660216
N                -4.2812464407       -0.1539422003       -0.8905274783
C                -5.5157790641       -0.7024463842       -1.4729326864
C                -6.7245658253       -0.8718695954       -0.5348171399
C                -3.6643694980       -1.0276428569        0.1106736255
C                -3.4410598165       -2.4753717663       -0.3616397271
C                -2.3581674487       -2.9986414117        0.5836662693
N                -1.5404696371       -1.8101434040        0.8684099535
C                -0.1909848345       -1.9640519520        1.0681303822
O                 0.3227476573       -3.0862136760        1.0879809662
C                 0.6255214943       -0.7351280953        1.2717177474
C                 0.3398799869        0.4335034983        2.0342469373
N                 1.3504759297        1.2761388887        2.0688391812
N                 2.3202457731        0.6767112732        1.3083703777
C                 3.5442416527        1.3602449878        1.1149211139
N                 3.8393334489        2.3148036927        2.0007686159
C                 4.9921993947        2.9530709610        1.7760943172
C                 5.8438592739        2.6478809340        0.7219822307
C                 5.4338235919        1.6133555799       -0.1340483287
C                 6.2438504015        1.1958424921       -1.2688107791
C                 7.4545620937        1.6224071374       -1.7598538169
C                 7.7385464146        0.8205355161       -2.9030291634
C                 6.6834439068       -0.0367081353       -3.0282215810
O                 5.7710603477        0.1759057989       -2.0496670576
N                 4.2658851719        0.9778401707        0.0631904913
C                 1.9271439364       -0.5560934662        0.8205356457
C                 2.7738674130       -1.4846974543        0.0099999527
C                -2.2324210059       -0.5700682003        0.4831920291
H                -5.8950713642        2.0805210604       -1.7917853004
H                -4.7647186956        3.2422760173       -1.0963440107
H                -4.2158023989        2.1279692881       -2.3657333538
H                -3.4399222864        1.5416412734       -0.0335175512
H                -5.1091226610        1.2951711589        0.4627890564
H                -5.7989891164       -0.0563341220       -2.3099328164
H                -5.2688354740       -1.6701779443       -1.9204939875
H                -6.5066492900       -1.5511555371        0.2971335894
H                -7.0515172284        0.0830949421       -0.1087630518
H                -7.5706242246       -1.2916734325       -1.0913404135
H                -4.2573193384       -1.0604922017        1.0464056048
H                -3.0694598829       -2.4589542749       -1.3935508948
H                -4.3456209404       -3.0894305318       -0.3297031954
H                -1.7298526156       -3.7793970967        0.1515276541
H                -2.7889637364       -3.3961968051        1.5132415980
H                -0.5588327454        0.6726898153        2.5870311400
H                 5.2456748131        3.7403128868        2.4841042910
H                 6.7752210586        3.1828495045        0.5767638390
H                 8.0702135477        2.4132957011       -1.3549901537
H                 8.6075224079        0.8739184415       -3.5434486716
H                 6.4433013494       -0.8221072842       -3.7288585625
H                 3.7441509306       -1.6525066039        0.4881891761
H                 2.9833607216       -1.0792702560       -0.9834283782
H                 2.2517258804       -2.4390000763       -0.0669293612
H                -2.2418687827        0.1531507458        1.3013689655
H                -1.7540717974       -0.1013948266       -0.3866240996



