%chk=calculation/no_transfer_pubchem_sampling_1_b3lyp/45233325_rwf.chk
%rwf=calculation/no_transfer_pubchem_sampling_1_b3lyp/45233325_rwf.rwf
%nprocshared=14
%mem=3GB
#p b3lyp/6-31g(d) 6D 10F nosymm GFInput td=(50-50,nstate=2) SCF=XQC 

Gaussian input prepared by ASE

0 1
C                 6.9796705160        3.6117999479        2.3155881799
C                 6.3905839393        2.2746085402        1.9302344345
C                 7.1406282690        1.3217447173        1.2357020107
C                 6.5888005763        0.0855027410        0.8873598903
C                 5.2715196119       -0.2327218066        1.2255778231
C                 4.6599146665       -1.5696393398        0.8519847186
N                 3.6091212219       -1.4690829985       -0.1726569475
C                 4.0881419362       -1.2614068744       -1.5302780744
C                 2.2966114300       -1.5258776523        0.2333106763
O                 2.0040703970       -1.6214510334        1.4272185870
C                 1.1953947478       -1.5138670355       -0.8322193079
C                 1.0548175723       -2.8988769666       -1.5036115044
C                -0.1335969783       -2.9068752279       -2.4734445659
C                -1.4096256023       -2.4139771449       -1.7832843565
N                -1.1976468022       -1.0795524946       -1.2208110629
C                -2.4158611977       -0.3752966835       -0.7938980861
C                -3.3487196930       -1.1449500285        0.1683952354
C                -4.4411081757       -0.2099437531        0.7085286202
N                -5.0524267732        0.5682065935       -0.3801607097
C                -5.9160034486        1.6199357834       -0.1867114773
O                -6.4024799443        2.2491006689       -1.1289718789
C                -6.2597915107        1.9941423032        1.2255563758
C                -7.6420424094        2.5867918082        1.4481032174
C                -6.4457053533        3.4780963906        1.5071198773
C                -4.7414019835        0.1486122326       -1.7489463359
C                -3.2263920606        0.1514986768       -2.0098243860
C                -0.1465191486       -1.1047299023       -0.2002967581
C                 4.5141922793        0.7203944579        1.9252824039
C                 5.0664321296        1.9501215187        2.2684394003
H                 6.3878758753        4.4423353403        1.9111030740
H                 8.0037510996        3.7199769102        1.9444424585
H                 7.0054451289        3.7385367427        3.4053237833
H                 8.1693945910        1.5455690225        0.9619757100
H                 7.1973592257       -0.6406930981        0.3515568475
H                 5.4381705144       -2.2420837072        0.4690833810
H                 4.1983223623       -2.0360883635        1.7238027744
H                 3.2670560603       -1.0753854631       -2.2194776616
H                 4.7618150603       -0.3962589178       -1.5598301774
H                 4.6453076054       -2.1397578642       -1.8852998298
H                 1.4156074912       -0.7718807805       -1.6087424951
H                 0.8955998926       -3.6496731560       -0.7169177782
H                 1.9781590281       -3.1793614590       -2.0245151406
H                -0.2941243476       -3.9184201874       -2.8672378040
H                 0.0803768671       -2.2515609289       -3.3277113499
H                -1.7021589890       -3.1485853909       -1.0063493055
H                -2.2291704479       -2.3745267979       -2.5086941855
H                -2.0594082416        0.5007260763       -0.2365477007
H                -3.8023415649       -2.0047403413       -0.3384595338
H                -2.7857892875       -1.5424138141        1.0206379809
H                -5.2003590746       -0.7942062382        1.2484118715
H                -3.9828540869        0.4764747154        1.4311596662
H                -5.8588696466        1.3943025622        2.0337109121
H                -8.2709509496        2.6561786331        0.5666747729
H                -8.1501894814        2.3256040937        2.3721109581
H                -6.2784538813        4.1420913998        0.6652005288
H                -6.1087466335        3.8473704181        2.4716848407
H                -5.2638412257        0.8348646142       -2.4145169156
H                -5.1550995398       -0.8555665715       -1.9197623028
H                -2.8894862777        1.1652944804       -2.2512632767
H                -3.0235577857       -0.4601916616       -2.8959461027
H                -0.0534216478       -0.1029131954        0.2321021470
H                -0.3698286155       -1.7921630618        0.6332280292
H                 3.4905727006        0.4818318518        2.2014455127
H                 4.4632590106        2.6730046993        2.8143303117



