%chk=./calculation/no_transfer_pubchem_sampling_1_b3lyp/45233325.chk
%nprocshared=7
%mem=6GB
#p b3lyp/6-31g(d) opt SCF=XQC 

Gaussian input prepared by ASE

0 1
C                 7.4007021189        3.1260929120        1.9729851726
C                 6.6997394711        1.8288702838        1.7058287792
C                 7.3984891766        0.7373718186        1.2066733972
C                 6.7524779536       -0.4557913798        0.9374313534
C                 5.3914499259       -0.5889210044        1.1701060415
C                 4.6623222777       -1.8712819615        0.8699839594
N                 3.5985813346       -1.6594557251       -0.0992494446
C                 4.0172157137       -1.1986056949       -1.4027220536
C                 2.3122487752       -1.7399512237        0.3168359297
O                 2.0281974504       -2.0847232675        1.4510595546
C                 1.2305564598       -1.4317719995       -0.7086661058
C                 0.8231177874       -2.7269815234       -1.4199031035
C                -0.3500526911       -2.4431540208       -2.3505450980
C                -1.4971533728       -1.8177999717       -1.5600424333
N                -1.0368911118       -0.5787923097       -0.9639837985
C                -2.0650039000        0.3332534300       -0.4937782806
C                -3.0334716045       -0.2539508226        0.5521515637
C                -4.2003298871        0.6976366572        0.7859377287
N                -4.9635690663        0.8717773190       -0.4340516581
C                -6.2083723806        1.4040073135       -0.4840690403
O                -6.8358207829        1.4708818502       -1.5273588392
C                -6.7679315111        1.8867718953        0.8195793369
C                -7.8797277768        1.0778253201        1.4396878021
C                -8.1784087483        2.3988554728        0.8151232522
C                -4.3212748285        0.4676652356       -1.6699723879
C                -2.8659263474        0.9191697444       -1.6761874296
C                 0.0057099672       -0.8492306067        0.0053844530
C                 4.6891998991        0.5005901178        1.6706402708
C                 5.3353412775        1.6932229657        1.9327884723
H                 7.4873880792        3.7006260789        1.0499644432
H                 8.4047750620        2.9519649137        2.3536726526
H                 6.8490086758        3.7249594589        2.6935031504
H                 8.4605849525        0.8230037125        1.0256224810
H                 7.3160403717       -1.2941189297        0.5513895293
H                 5.3548155921       -2.6278066126        0.4861248614
H                 4.1817265908       -2.2547880811        1.7747607143
H                 3.4687306397       -1.7055235479       -2.1956372036
H                 3.8886383724       -0.1173803469       -1.5116117130
H                 5.0755047440       -1.4239728971       -1.5219835050
H                 1.5712379400       -0.7000140574       -1.4425361769
H                 0.5278782810       -3.4607183963       -0.6662329599
H                 1.6634858341       -3.1430286303       -1.9799624273
H                -0.6888596686       -3.3660833860       -2.8242777886
H                -0.0381446500       -1.7474657603       -3.1315717785
H                -1.8334273517       -2.5436081367       -0.7982964856
H                -2.3314735239       -1.6079277419       -2.2302056558
H                -1.5219746414        1.1565824835       -0.0138238006
H                -3.4169808081       -1.2165376078        0.2149995226
H                -2.5063433341       -0.4124964282        1.4939956065
H                -4.8534675765        0.2936794905        1.5661803920
H                -3.8082889674        1.6652023271        1.1324197761
H                -6.0592215685        2.3584684677        1.4867803400
H                -8.1969040255        0.1880438646        0.9172025178
H                -7.9022472237        0.9888142780        2.5160591502
H                -8.6806504561        2.3999431869       -0.1399414459
H                -8.4197145672        3.2357252870        1.4521776705
H                -4.8787672176        0.9371769683       -2.4839566970
H                -4.3969515178       -0.6187742806       -1.7952575869
H                -2.8472999997        2.0085014574       -1.6223303001
H                -2.3917655600        0.6300385774       -2.6134211551
H                 0.2887939134        0.0873598508        0.4925852277
H                -0.3124626791       -1.5562546044        0.7878283874
H                 3.6299166596        0.4024970837        1.8597002825
H                 4.7750030495        2.5303291333        2.3244125797



