%chk=calculation/no_transfer_pubchem_sampling_1_b3lyp/46815394_rwf.chk
%rwf=calculation/no_transfer_pubchem_sampling_1_b3lyp/46815394_rwf.rwf
%nprocshared=14
%mem=3GB
#p b3lyp/6-31g(d) 6D 10F nosymm GFInput td=(50-50,nstate=2) SCF=XQC 

Gaussian input prepared by ASE

0 1
C                -2.3628770940       -3.9228540452       -2.6931756633
O                -1.9978462069       -2.5550231786       -2.5675025648
C                -2.3564349408       -1.8782333068       -1.4426773107
C                -3.1617752221       -2.4223274518       -0.4294537918
C                -3.4919293984       -1.6550385167        0.6801403651
C                -3.0378165780       -0.3351833653        0.8051420316
C                -3.4032709430        0.4373599566        2.0291251981
C                -2.8545457328        1.8467692604        2.1915376835
O                -4.1173855560       -0.0548649956        2.8925672197
C                -2.2408025266        0.1962709152       -0.2196511486
C                -1.8807754024       -0.5545890672       -1.3350974491
C                -0.9943423978        0.0363460473       -2.4169672963
N                 0.2231750921        0.6581298653       -1.8964068432
C                 0.3462305345        2.0440698574       -1.6621212495
O                -0.5393104993        2.8647715642       -1.8050701300
N                 1.6429729500        2.2584877520       -1.2672905594
C                 2.3991360726        1.0204164096       -1.0601751866
C                 3.5866900808        0.9333185521       -2.0333778839
C                 2.7970347773        0.8237396988        0.4053985687
C                 4.1237783293        0.6187265974        0.8020552713
C                 4.4379165331        0.4608090005        2.1474705790
F                 5.7282892784        0.2675137999        2.4883622940
C                 3.4726190471        0.4976264014        3.1442110530
C                 2.1447655760        0.6967481485        2.7677997829
C                 1.8361283059        0.8526384295        1.4245840104
F                 0.5328703370        1.0324580212        1.0913723120
C                 1.3485901173       -0.0363995884       -1.5140690367
O                 1.5211025896       -1.2350416769       -1.5702253698
H                -3.4527137990       -4.0457080083       -2.7282050901
H                -1.9306986165       -4.2586214732       -3.6371301103
H                -1.9535646036       -4.5223961785       -1.8709642777
H                -3.5265392212       -3.4401913601       -0.5033659322
H                -4.1087646088       -2.0652164640        1.4732242843
H                -3.2103886978        2.5042957685        1.3890875226
H                -3.1857226653        2.2420046429        3.1535174086
H                -1.7592665977        1.8478740530        2.1475091063
H                -1.8841266941        1.2186704940       -0.1576097775
H                -0.6932375131       -0.7408732257       -3.1194861704
H                -1.5213463107        0.8235291398       -2.9642184359
H                 1.8810910426        3.1314150331       -0.8183817044
H                 3.2274543476        1.1070673285       -3.0512564706
H                 4.3401781097        1.6941195067       -1.8062665318
H                 4.0443324175       -0.0588697859       -1.9915286059
H                 4.9290100393        0.5724329740        0.0799279891
H                 3.7565672923        0.3683034115        4.1827234879
H                 1.3455519560        0.7255210590        3.5005424225



