%chk=./calculation/no_transfer_pubchem_sampling_1_b3lyp/5503511.chk
%nprocshared=7
%mem=6GB
#p b3lyp/6-31g(d) opt SCF=XQC 

Gaussian input prepared by ASE

0 1
C                -6.5401764043       -0.5537024120       -1.3437425264
N                -5.3082187990       -0.1733341911       -0.6850210019
C                -5.3182712428       -0.5801561398        0.7043459118
C                -5.0318029493        1.2447397415       -0.8512522955
C                -3.5729500712        1.5891053620       -0.5510948813
C                -2.6431716536        0.7250825960       -1.4027824457
N                -1.2514361349        0.8957599884       -1.0706925873
C                -0.3299303864        1.3424245597       -1.9541651958
O                -0.5559843311        1.7135735989       -3.0844476917
C                 1.0304290003        1.2708790916       -1.2590279872
O                 2.0808005547        1.6313699248       -1.7403827517
C                 0.7645861397        0.7290033787        0.0659398427
C                 1.6330155729        0.5729024297        1.0925495807
O                 1.1374064610        0.2621029265        2.3127589975
C                 3.0858770106        0.7385800537        0.9810186047
C                 3.7713535853        1.4804672777        1.9455592956
C                 5.1390181449        1.6325995844        1.8646376218
C                 5.8536873149        1.0357806322        0.8323903057
C                 5.1691158138        0.2981450927       -0.1442946444
C                 3.7945604715        0.1476397211       -0.0574885985
O                 5.8229145442       -0.2874284567       -1.1905419758
C                 7.1121750896        0.2436564222       -1.4049703953
C                 7.8721782532        0.3194265340       -0.0820779045
O                 7.2099500683        1.1859875029        0.8157693273
C                -0.7203326150        0.4889673650        0.2110621151
C                -1.0227083256       -0.9607837156        0.5118456875
C                -1.6167748961       -1.3354979390        1.7081857022
C                -1.8934717935       -2.6667975218        1.9694509711
C                -1.5826808836       -3.6419447701        1.0391089086
C                -0.9865637266       -3.2531161028       -0.1475146934
F                -0.6729978376       -4.1958808220       -1.0588766344
C                -0.6999054760       -1.9315940219       -0.4275457606
H                -6.4726532069       -0.3080955144       -2.4022629138
H                -6.6753184788       -1.6299966268       -1.2473588712
H                -7.4246602875       -0.0511091341       -0.9212207048
H                -4.3422647472       -0.4004043762        1.1494376426
H                -6.0825540186       -0.0498712736        1.2956559096
H                -5.5191228922       -1.6490912779        0.7576196122
H                -5.2365442037        1.4978510193       -1.8941545268
H                -5.6912454187        1.8643012174       -0.2163748486
H                -3.3634940752        1.4255413967        0.5064836157
H                -3.4044658771        2.6451835739       -0.7675289187
H                -2.9299915594       -0.3239396136       -1.2754781366
H                -2.7422502330        0.9944590291       -2.4569013158
H                 1.8618698030        0.1680688376        2.9467207941
H                 3.2295517237        1.9736116597        2.7404616168
H                 5.6824716278        2.2103430541        2.5948155194
H                 3.2953092081       -0.4347435424       -0.8124886093
H                 7.0340760776        1.2494239125       -1.8386104879
H                 7.6091441651       -0.4235441193       -2.1100358911
H                 8.8750733457        0.7258982311       -0.2198631752
H                 7.9388359922       -0.6860234592        0.3555206692
H                -1.1301587144        1.1139121172        1.0172645474
H                -1.8542376694       -0.5822530037        2.4443388943
H                -2.3575274941       -2.9471195291        2.9027331067
H                -1.7917908279       -4.6844006035        1.2185626904
H                -0.2377407372       -1.6659586658       -1.3660401193



