%chk=calculation/no_transfer_pubchem_sampling_1_b3lyp/59525307_rwf.chk
%rwf=calculation/no_transfer_pubchem_sampling_1_b3lyp/59525307_rwf.rwf
%nprocshared=14
%mem=3GB
#p b3lyp/6-31g(d) 6D 10F nosymm GFInput td=(50-50,nstate=2) SCF=XQC 

Gaussian input prepared by ASE

0 1
C                -2.5804945217       -0.4316844352        0.4508960092
N                -1.8881789921        0.7496030074        0.9683776410
S                -0.7739289863        1.5533922654        0.0108096907
O                -0.2815693640        2.6596818605        0.8300322738
O                -1.4021064050        1.7401855669       -1.2960897611
C                 0.6118904102        0.4189899750       -0.2328794125
C                 1.6687336575        0.4058873251        0.6763542542
C                 2.6958238617       -0.5144990547        0.4595844925
N                 2.7194851914       -1.3782513055       -0.5632072092
C                 1.6991166180       -1.3376629476       -1.4276202788
C                 0.6182101869       -0.4593825609       -1.3149506474
H                -3.0070753710       -0.1826861553       -0.5222788122
H                -3.3993123130       -0.6691218040        1.1352399934
H                -1.9318802679       -1.3136634457        0.3500836745
H                -1.5640931662        0.6911137176        1.9298262798
H                 1.7001480308        1.1033924871        1.5064994359
H                 3.5438131284       -0.5551444531        1.1405807884
H                 1.7460901395       -2.0395523426       -2.2581202292
H                -0.1746728373       -0.4405967004       -2.0544661832



