%chk=./calculation/no_transfer_pubchem_sampling_1_b3lyp/59929573.chk
%nprocshared=7
%mem=6GB
#p b3lyp/6-31g(d) opt SCF=XQC 

Gaussian input prepared by ASE

0 1
C                -1.1693908031       -5.4473919126        1.0169626619
O                -0.6784809081       -4.1348453835        0.8969060105
C                 0.4895071796       -3.8096323905        1.5150496031
C                 1.2734277596       -4.6774942461        2.2632318284
C                 2.4608798831       -4.2433529714        2.8283838064
C                 2.8931405675       -2.9366099728        2.6522171071
C                 4.1894704561       -2.5025594521        3.2581364528
O                 4.6718021431       -3.0431447122        4.2359136796
N                 4.7952271501       -1.4919853667        2.5954603045
C                 5.9816789431       -0.8181121774        3.0556761422
C                 5.6711064065        0.5175696658        3.7517724489
C                 4.5759913651        1.3222854665        3.0446709186
O                 4.8070111042        1.3066037853        1.6512845920
C                 3.8880960587        1.9117608809        0.8336345051
C                 2.8324744761        2.6963015929        1.2729917442
C                 1.9427277865        3.2407234739        0.3633604096
C                 2.0887504347        3.0275193500       -0.9972760923
C                 1.1189983669        3.6177686642       -1.9787363001
C                 3.1676619907        2.2621349478       -1.4277261871
C                 4.0651635728        1.6958768824       -0.5401068869
C                 5.2075389243        0.8477818039       -1.0122189476
C                 2.0959145215       -2.0545423449        1.9298406297
C                 0.9075239115       -2.4726910534        1.3582080413
N                 0.1160149571       -1.6299491925        0.5639637632
C                 0.2898026412       -0.3030259761        0.4060693988
O                 1.0774164167        0.3869931212        1.0159656148
C                -0.5589139714        0.3226801088       -0.7227768145
C                -0.2571879577       -0.3203073906       -2.0822167869
C                 1.2029690745       -0.5388619761       -2.3400792479
O                -1.1383174192       -0.6053459089       -2.8473061798
N                -1.9823149712        0.3402130683       -0.4822588289
C                -2.8169592834       -0.7261500596       -0.4555985007
O                -2.5103472089       -1.8952130279       -0.4184074036
C                -4.2438962982       -0.1493387328       -0.4602155725
O                -4.9350848684       -0.4518985223       -1.6421988818
C                -5.3511522865       -1.7961202776       -1.7463224885
N                -4.0031234259        1.2611335795       -0.3856807971
C                -5.0583341423        2.2517342997       -0.4750092033
C                -5.7265245923        2.2470620707       -1.8258201487
C                -7.0840374103        1.9936483914       -1.9501516652
C                -7.6805776584        1.9777294030       -3.1990012857
C                -6.9216938866        2.2081875404       -4.3328114284
C                -5.5652173990        2.4614491755       -4.2143216136
C                -4.9706811215        2.4842876038       -2.9667440163
C                -2.6935651077        1.5634836392       -0.5143342894
O                -2.1736884145        2.6445527416       -0.5866768591
H                -2.0992293517       -5.4595833602        0.4510904243
H                -1.3744320649       -5.7051999812        2.0605356442
H                -0.4735021821       -6.1767658385        0.5905861139
H                 0.9660692064       -5.7007988259        2.4085935123
H                 3.0686940415       -4.9185893978        3.4102208749
H                 4.3351087627       -1.0625824773        1.8091825625
H                 6.6250694707       -0.6346909682        2.1914775028
H                 6.4906654552       -1.4860932002        3.7535654519
H                 5.3360368150        0.3339299678        4.7731207067
H                 6.5911681512        1.1012172403        3.7894979523
H                 3.5902899926        0.8865192081        3.2601944081
H                 4.5865357305        2.3524248427        3.4263077754
H                 2.6766200140        2.8758622985        2.3241284090
H                 1.1135354779        3.8302573206        0.7249096216
H                 0.1212326090        3.6830948616       -1.5489203083
H                 1.0745887553        3.0243201649       -2.8902025868
H                 1.4305374988        4.6268413315       -2.2511418787
H                 3.3146403715        2.1039439039       -2.4885351558
H                 5.2818012678        0.8664727611       -2.0965588001
H                 5.0744988827       -0.1847382325       -0.6879049798
H                 6.1415513305        1.2061908803       -0.5836169844
H                 2.3663909820       -1.0183245760        1.8216426881
H                -0.6859138268       -2.0835573373        0.1218269494
H                -0.2541687035        1.3790031829       -0.7725957427
H                 1.3844217612       -0.6058726673       -3.4099002558
H                 1.8016242325        0.2523547063       -1.8936959489
H                 1.4966678117       -1.4844493682       -1.8848383306
H                -4.8126856674       -0.5116722337        0.4188020090
H                -6.0185021846       -2.0615652191       -0.9177354031
H                -4.4991981439       -2.4800204553       -1.7587009407
H                -5.8890505705       -1.8593316049       -2.6889865916
H                -5.7862805226        2.0504562557        0.3166968438
H                -4.5782101400        3.2169140802       -0.2888064939
H                -7.6790561999        1.8076071922       -1.0669500610
H                -8.7390019621        1.7799191406       -3.2864887294
H                -7.3862318395        2.1899558595       -5.3077203650
H                -4.9695841568        2.6417402658       -5.0968528136
H                -3.9135060609        2.6839050702       -2.8719813170



