%chk=./calculation/no_transfer_pubchem_sampling_1_b3lyp/60200126.chk
%nprocshared=7
%mem=6GB
#p b3lyp/6-31g(d) opt SCF=XQC 

Gaussian input prepared by ASE

0 1
C                -2.0163698305        0.9278889325       -2.1635223644
O                -3.2528908400        0.7181576575       -2.8089399992
C                -4.2259419928        0.0470476095       -2.1539321111
C                -5.4047122466       -0.1721268017       -2.8924202186
C                -6.4484114302       -0.8549950489       -2.3345136117
C                -6.3685959339       -1.3271605444       -1.0158627219
N                -7.4235756773       -2.0104790704       -0.4957408668
C                -7.3470246457       -2.4381730520        0.7106711400
C                -6.2133477709       -2.2318461338        1.6038236179
O                -6.1639533530       -2.6240211109        2.7580603086
N                -5.1621570159       -1.5181952469        1.0409441475
C                -4.0322164811       -1.2216254524        1.8988661364
C                -2.8158708817       -2.1197922289        1.6055493335
N                -1.6446198806       -1.3348995131        1.2523453165
C                -0.6140831590       -2.1356765394        0.6144116410
C                 0.5147289162       -1.2455064073        0.1054992765
C                 1.1349574950       -0.4387764840        1.2490950545
N                 2.1174677660        0.4950966503        0.7318568486
C                 3.4315505777       -0.0774193468        0.5121419583
C                 4.3788964588        0.9557485956       -0.0277480667
C                 3.9471321074        1.9518873571       -0.8937064495
C                 4.8619109806        2.8774442257       -1.3721069442
C                 6.1867235406        2.7722245230       -0.9760701139
C                 6.5160982808        1.7414359944       -0.0859049957
N                 5.6436007385        0.8653736838        0.3728050969
N                 7.8202980344        1.6544289385        0.3838618497
C                 8.8379087202        2.4124985076       -0.0989899187
O                 9.9566262201        2.3792359881        0.3530668080
C                 8.4642288298        3.2602261554       -1.3127118024
O                 7.1154241544        3.6768591496       -1.3937049817
C                 0.0120440260        0.3135708045        1.9660940189
F                -0.5236988112        1.2713150497        1.1279106350
C                -1.0988698927       -0.6378841717        2.4008844284
C                -5.1957649573       -1.0841923202       -0.2627754291
C                -4.1195860408       -0.4146258716       -0.8518056999
H                -1.4028927769        1.4772735609       -2.8753951612
H                -2.1245818040        1.5160642378       -1.2484910722
H                -1.5349244943       -0.0246489630       -1.9260899803
H                -5.4488408539        0.2046503538       -3.9012770426
H                -7.3555377162       -1.0478059178       -2.8837414612
H                -8.1893551751       -2.9863552575        1.1102938655
H                -4.3878600626       -1.3831262476        2.9193610346
H                -3.7653789369       -0.1712505411        1.7687533020
H                -2.6158125861       -2.7754156499        2.4682721958
H                -3.0538404229       -2.7617276103        0.7536916043
H                -0.2037674307       -2.8890083352        1.3121363851
H                -1.0652321929       -2.6650421965       -0.2283302990
H                 1.2728568301       -1.8623213390       -0.3759715014
H                 0.1305830647       -0.5336007758       -0.6240354335
H                 1.5772735481       -1.1328985661        1.9911274176
H                 2.1977201738        1.2998613479        1.3454832351
H                 3.3321455774       -0.8784035173       -0.2285913767
H                 3.8736692494       -0.5187310976        1.4213211041
H                 2.9083087364        1.9948558853       -1.1748619143
H                 4.5694314137        3.6752148441       -2.0359121987
H                 8.0031841021        0.9947093807        1.1294768099
H                 9.0700271843        4.1689564910       -1.3138400428
H                 8.7263191281        2.6687130255       -2.2059558658
H                 0.4023792461        0.8632566230        2.8339637506
H                -0.6842284438       -1.3372944844        3.1501194899
H                -1.8907539487       -0.0580784591        2.8777582926
H                -3.2087964143       -0.2708902699       -0.2958404584



