%chk=calculation/no_transfer_pubchem_sampling_1_b3lyp/60200126_rwf.chk
%rwf=calculation/no_transfer_pubchem_sampling_1_b3lyp/60200126_rwf.rwf
%nprocshared=14
%mem=3GB
#p b3lyp/6-31g(d) 6D 10F nosymm GFInput td=(50-50,nstate=2) SCF=XQC 

Gaussian input prepared by ASE

0 1
C                -2.3432227213        2.1714321485       -1.3419601617
O                -3.2817590766        1.6913525324       -2.2978198242
C                -4.0640915138        0.6312246543       -1.9754153040
C                -4.9588829471        0.2324889284       -2.9928063746
C                -5.7825691061       -0.8485750803       -2.7817860727
C                -5.7681705859       -1.5509835722       -1.5594983539
N                -6.6073773227       -2.6368976054       -1.4213931729
C                -6.5783255217       -3.2926326787       -0.3069259796
C                -5.7391028781       -2.9562879585        0.8464291283
O                -5.7367164127       -3.5964534980        1.8975644138
N                -4.9407192313       -1.8142177949        0.6847718820
C                -4.2376773913       -1.3873933786        1.9043697338
C                -2.9064538279       -2.1272718618        2.1464584940
N                -1.7449341362       -1.3852460101        1.6511369973
C                -0.6415123804       -2.2418608350        1.2110666979
C                 0.4515052609       -1.4000011893        0.5471201593
C                 0.9819337710       -0.3223503571        1.5065994168
N                 1.9499530612        0.5582044107        0.8510633260
C                 3.3103549738        0.0271965790        0.8032270847
C                 4.2459687323        0.9278263971        0.0215803365
C                 3.7945398999        1.7469181864       -1.0152145223
C                 4.7169750399        2.5311223480       -1.7144920387
C                 6.0544309756        2.4683420345       -1.3541049030
C                 6.4099110018        1.6140333639       -0.2956327096
N                 5.5436062299        0.8667806469        0.3756663649
N                 7.7534319133        1.5765736537        0.0961964708
C                 8.7758626587        2.1168036209       -0.6440981840
O                 9.9490616688        2.0536666705       -0.3246507203
C                 8.3244605312        2.7482377691       -1.9623422539
O                 6.9897426924        3.2649682932       -1.9559273822
C                -0.1856155918        0.4887337343        2.0714915577
F                -0.7264782995        1.3027601274        1.0643774275
C                -1.2890033095       -0.4019511310        2.6280134453
C                -4.8895123864       -1.1239062405       -0.5269412249
C                -4.0142353602       -0.0430592960       -0.7528191450
H                -1.8699562329        3.0390307639       -1.8051235754
H                -2.8387658665        2.4784273772       -0.4129673370
H                -1.5848624219        1.4196115282       -1.1068557968
H                -4.9611329450        0.7852166633       -3.9259546352
H                -6.4697736256       -1.1966194995       -3.5463198173
H                -7.2245162655       -4.1594462919       -0.1811483408
H                -4.9214284775       -1.6063213045        2.7263157273
H                -4.0856820677       -0.3079368379        1.8547269690
H                -2.8103598888       -2.3486165075        3.2248173537
H                -2.9538047920       -3.0947807721        1.6407984169
H                -0.2114077990       -2.8214576501        2.0542782824
H                -1.0369990725       -2.9668083589        0.4922778770
H                 1.2684549807       -2.0533693261        0.2204672678
H                 0.0460356310       -0.9052162617       -0.3410110532
H                 1.4271144117       -0.8335996003        2.3843581586
H                 1.9651386305        1.4647622724        1.3162827206
H                 3.2735205115       -0.9538909919        0.3101233840
H                 3.7569307742       -0.1484096347        1.7977478195
H                 2.7394775469        1.7621785500       -1.2625355002
H                 4.4130244845        3.1905877461       -2.5216279363
H                 7.9886158025        1.0487792905        0.9296276735
H                 8.9837018712        3.5868178841       -2.1868242445
H                 8.4334007031        1.9940026280       -2.7571172968
H                 0.1694147811        1.1680175231        2.8591657779
H                -0.9128504861       -0.8841890353        3.5549158343
H                -2.1287983001        0.2377565872        2.9208125724
H                -3.2698692978        0.2158966472       -0.0116789108



