%chk=./calculation/no_transfer_pubchem_sampling_1_b3lyp/63067936.chk
%nprocshared=7
%mem=6GB
#p b3lyp/6-31g(d) opt SCF=XQC 

Gaussian input prepared by ASE

0 1
C                -2.2456075935       -2.1524850231       -0.0137103783
N                -1.0848362081       -1.2949723747        0.1015607789
C                -1.3516584220       -0.1572746381        0.9736770729
C                -2.3358635825        0.7783384602        0.3338627096
C                -2.0426054591        1.3917377821       -0.8796484073
C                -2.9765523672        2.2369667031       -1.4520672971
C                -4.1765640583        2.4390401974       -0.7851752532
N                -4.4672040851        1.8645703712        0.3682007852
C                -3.5708914804        1.0576262028        0.9076655507
C                 0.0889133990       -2.0307885874        0.5437902335
C                 1.3397721992       -1.2396076330        0.2798865242
C                 1.5018239250       -0.5612578566       -0.9240832971
C                 2.6410345459        0.1723779148       -1.1862812601
C                 3.6588487812        0.2386708623       -0.2370763907
C                 4.9003453547        1.0100505990       -0.4717183927
O                 5.8093779184        1.0988424699        0.3142760525
O                 4.9295860518        1.6186843396       -1.6673756352
C                 3.5222465507       -0.4357928971        0.9728806633
C                 2.3713187952       -1.1581757419        1.2093798357
F                 2.2471979091       -1.8051777102        2.3882073646
H                -2.5226875846       -2.6236970250        0.9419348041
H                -2.0429927828       -2.9345753038       -0.7441295034
H                -3.0891741141       -1.5604700897       -0.3649879477
H                -0.4066630017        0.3737810649        1.1264830430
H                -1.7274750141       -0.4817347167        1.9602766445
H                -1.0935407102        1.2007382515       -1.3583437273
H                -2.7802434476        2.7288999694       -2.3923446388
H                -4.9417894811        3.0887644520       -1.1892542982
H                -3.8568921271        0.6107116302        1.8522425246
H                 0.0313643696       -2.3056309969        1.6103572987
H                 0.1410590281       -2.9582004070       -0.0364544743
H                 0.7044975625       -0.6224088732       -1.6482138706
H                 2.7553328487        0.6951287907       -2.1224187808
H                 5.7631862092        2.1049022931       -1.7647001655
H                 4.3073380715       -0.3875804796        1.7109918325



