%chk=calculation/no_transfer_pubchem_sampling_1_b3lyp/63067936_rwf.chk
%rwf=calculation/no_transfer_pubchem_sampling_1_b3lyp/63067936_rwf.rwf
%nprocshared=14
%mem=3GB
#p b3lyp/6-31g(d) 6D 10F nosymm GFInput td=(50-50,nstate=2) SCF=XQC 

Gaussian input prepared by ASE

0 1
C                -2.2133880813       -2.2034982401       -0.0806615734
N                -1.0889334783       -1.2770962098        0.0359484339
C                -1.4161953576       -0.1336349721        0.8973251137
C                -2.4529414845        0.7891410370        0.2937773798
C                -2.3271316166        1.2864868604       -1.0085295061
C                -3.2917136279        2.1629879745       -1.4970907634
C                -4.3561506781        2.5168189120       -0.6643901580
N                -4.5025890681        2.0516898912        0.5809040793
C                -3.5661296035        1.2074089543        1.0310686119
C                 0.1138368764       -1.9710177707        0.5077771015
C                 1.3861222069       -1.1843482661        0.2596796961
C                 1.6093879917       -0.5146960376       -0.9513585414
C                 2.7920821854        0.1787766841       -1.1922602121
C                 3.7918886723        0.2143876101       -0.2098566314
C                 5.0777904580        0.9359632523       -0.4017008961
O                 5.9723256288        0.9920082845        0.4179284294
O                 5.1673762400        1.5459495350       -1.6113430556
C                 3.5955889750       -0.4480151313        1.0067378266
C                 2.4066466395       -1.1291502315        1.2133959939
F                 2.2335151267       -1.7684218156        2.3938111570
H                -2.4866509104       -2.6740901339        0.8830370348
H                -1.9628815959       -2.9979320439       -0.7913471211
H                -3.0900697518       -1.6709574771       -0.4584623234
H                -0.4881153276        0.4289553832        1.0568217322
H                -1.7578484093       -0.4644435522        1.8976125817
H                -1.4864135364        0.9783341833       -1.6235807932
H                -3.2242230254        2.5679163694       -2.5028408490
H                -5.1269982665        3.2018346507       -1.0143359879
H                -3.7093742968        0.8374887664        2.0467611657
H                 0.0470011989       -2.2417705322        1.5748965631
H                 0.1803614850       -2.9170092321       -0.0455421271
H                 0.8261133185       -0.5434932048       -1.7022917246
H                 2.9462904403        0.6901174298       -2.1353956701
H                 6.0404395802        1.9800045567       -1.6228028510
H                 4.3609830928       -0.4266934836        1.7739978848



