%chk=calculation/no_transfer_pubchem_sampling_1_b3lyp/65540737_rwf.chk
%rwf=calculation/no_transfer_pubchem_sampling_1_b3lyp/65540737_rwf.rwf
%nprocshared=14
%mem=3GB
#p b3lyp/6-31g(d) 6D 10F nosymm GFInput td=(50-50,nstate=2) SCF=XQC 

Gaussian input prepared by ASE

0 1
C                 5.5741325890        2.8806832317       -0.3324015245
C                 4.3199435985        2.0231254348       -0.5283564235
C                 4.4257063200        0.6594281841        0.1651703918
N                 3.2354502450       -0.1710307379       -0.0499821084
C                 2.1073129212        0.0981879948        0.8552399861
C                 2.2707918059       -0.4910933872        2.2767507331
C                 1.8424634709       -1.9781529868        2.1451836421
C                 0.9795480086       -2.0601092189        0.8505847632
C                 0.8114698624       -0.5976363912        0.3695168166
C                 0.5061034015       -0.4191073593       -1.1207787868
C                -0.7865819059       -1.0832976836       -1.5766184162
O                -1.8693285732       -0.5011370994       -0.8471886397
C                -3.1295001124       -0.9914756409       -1.0347375977
C                -3.4693055307       -1.9869277075       -1.9562236778
C                -4.7920326742       -2.4326632655       -2.0568606521
C                -5.7834871953       -1.8921598313       -1.2437711543
C                -5.4490717503       -0.8885854845       -0.3291840366
C                -4.1391293470       -0.4330706099       -0.2170484355
O                -3.8344696014        0.5090466861        0.7378632844
C                -3.5288032855        1.8227932143        0.2424169167
C                -3.2159016447        2.7026479885        1.4395616438
H                 6.4648178642        2.3816521861       -0.7345491671
H                 5.7599126440        3.0807401155        0.7302280360
H                 5.4786363200        3.8470190272       -0.8397728998
H                 4.1350173459        1.8527070907       -1.5960998693
H                 3.4448635062        2.5659532202       -0.1469315221
H                 4.6536329699        0.8138698380        1.2370441777
H                 5.2841122321        0.1202274170       -0.2558901986
H                 3.4974579425       -1.1515753202        0.0282873349
H                 1.9722448465        1.1851166967        0.8835621309
H                 1.5995295846        0.0343159433        2.9677057519
H                 3.2871670977       -0.3718279101        2.6686513362
H                 1.2854140905       -2.3083801851        3.0276582891
H                 2.7160916369       -2.6360917114        2.0712352365
H                 1.4917972202       -2.6553723495        0.0818237631
H                 0.0142343253       -2.5449818152        1.0272663040
H                -0.0151142924       -0.1537313962        0.9395405186
H                 0.4518876937        0.6517215288       -1.3572907744
H                 1.3318536583       -0.8231076420       -1.7176042873
H                -0.7612691172       -2.1665514308       -1.3927724924
H                -0.9393046101       -0.9276041333       -2.6544533281
H                -2.7091923661       -2.4230533097       -2.5943341420
H                -5.0353747987       -3.2099466816       -2.7761622568
H                -6.8095430101       -2.2406548126       -1.3176374732
H                -6.1960639125       -0.4470716461        0.3240588494
H                -4.3950520506        2.2095589325       -0.3143974660
H                -2.6752445555        1.7729775826       -0.4429329149
H                -2.3513179249        2.3122038962        1.9861368864
H                -4.0679589054        2.7393163163        2.1261632300
H                -2.9885460374        3.7231052226        1.1113952229



