%chk=./calculation/no_transfer_pubchem_sampling_1_b3lyp/65540737.chk
%nprocshared=7
%mem=6GB
#p b3lyp/6-31g(d) opt SCF=XQC 

Gaussian input prepared by ASE

0 1
C                 5.0701873757        3.0869618441       -0.5199429644
C                 3.8906296633        2.1238881533       -0.5382707635
C                 4.2409144366        0.7931252712        0.1314620276
N                 3.1538618223       -0.1590165116       -0.0089247279
C                 2.0729132173       -0.0225750486        0.9506514215
C                 2.3474402904       -0.6998892989        2.3039734025
C                 2.0027693993       -2.1805737749        2.0832059958
C                 1.0828606913       -2.2293635919        0.8481900593
C                 0.8174712820       -0.7677158278        0.4632690446
C                 0.5327450970       -0.5442345439       -1.0183283023
C                -0.7794077403       -1.1828079012       -1.4638753684
O                -1.8304343617       -0.5214075020       -0.7917822353
C                -3.1240360080       -0.9108517836       -1.0209719620
C                -3.4666292140       -1.9643543948       -1.8600063280
C                -4.7847781857       -2.3502479838       -2.0361794861
C                -5.7918965928       -1.6821365278       -1.3692671292
C                -5.4698718664       -0.6209340271       -0.5454320934
C                -4.1530553139       -0.2121008348       -0.3594068261
O                -4.0061642220        0.8365758222        0.4992677410
C                -2.8257250515        1.6195507309        0.5144577933
C                -3.1327999933        2.8794200530        1.3111105877
H                 5.9187297706        2.6629303213       -1.0525488889
H                 5.3782592152        3.2942224334        0.5029568639
H                 4.8023908198        4.0278384503       -0.9945380143
H                 3.5876821346        1.9205826527       -1.5662466058
H                 3.0420185831        2.5807154382       -0.0268787212
H                 4.5141124706        0.9783002618        1.1843972248
H                 5.1185398889        0.3755008410       -0.3691629332
H                 3.5080950895       -1.1076231329        0.0286451261
H                 1.8704840224        1.0443653799        1.0683392056
H                 1.6965869384       -0.2669894922        3.0641678634
H                 3.3796700961       -0.5619282310        2.6268411145
H                 1.5118050097       -2.5973690945        2.9618433192
H                 2.9070857976       -2.7656026602        1.9107560829
H                 1.5764758981       -2.7432149284        0.0218370924
H                 0.1563424433       -2.7591587609        1.0645835959
H                -0.0356337322       -0.3984654782        1.0389256111
H                 0.4789075510        0.5289347406       -1.2063124219
H                 1.3497793052       -0.9509334979       -1.6131419930
H                -0.7831178754       -2.2528198021       -1.2183670285
H                -0.8975038893       -1.0701609540       -2.5511734012
H                -2.6939849412       -2.5050586107       -2.3828362923
H                -5.0123732236       -3.1761324368       -2.6927066136
H                -6.8228080030       -1.9759082739       -1.4922002868
H                -6.2351579310       -0.0745277297       -0.0168737902
H                -2.5288451932        1.8792559609       -0.5079872914
H                -2.0051893519        1.0660372561        0.9846584461
H                -3.4415803747        2.6137755189        2.3184412887
H                -3.9392081593        3.4335987116        0.8382947548
H                -2.2485570849        3.5085227949        1.3621518064



