%chk=calculation/no_transfer_pubchem_sampling_1_b3lyp/69212619_rwf.chk
%rwf=calculation/no_transfer_pubchem_sampling_1_b3lyp/69212619_rwf.rwf
%nprocshared=14
%mem=3GB
#p b3lyp/6-31g(d) 6D 10F nosymm GFInput td=(50-50,nstate=2) SCF=XQC 

Gaussian input prepared by ASE

0 1
N                -4.0235587731        2.5883448605        0.0284969186
C                -4.6986217267        1.3879667169        0.0106233094
O                -5.8920151582        1.3355132829       -0.2575455015
C                -3.9096283312        0.1552080752        0.3750729507
C                -4.6176651631       -0.7952394279        1.0910764320
C                -4.0008045937       -1.9699706897        1.5670110018
C                -2.6687618839       -2.1974605588        1.3085009271
C                -1.9110256845       -1.2778526021        0.5378671803
C                -0.5463246311       -1.5351183289        0.2334541153
C                 0.1981264150       -0.6833238904       -0.5509734246
C                 1.6372959754       -0.9924598316       -0.9176570359
N                 2.5247558969        0.1474816076       -0.7061101879
C                 3.8289444205        0.0539478878       -1.3917891306
C                 4.9767500944       -0.2523254745       -0.4301195580
O                 5.1055369941        0.7485473993        0.5777361944
C                 3.8772766069        1.3891910768        0.9231217470
C                 2.6688039045        0.4851411958        0.7163000163
C                -0.4291808052        0.4817002409       -1.0660799612
C                -1.7432270728        0.7733596153       -0.7828802540
C                -2.5321088403       -0.0793509351        0.0451761123
H                -3.1591268392        2.6759636045        0.5446267203
H                -4.6102834898        3.4114477450       -0.0241318199
H                -5.6674429305       -0.6077274451        1.2911639343
H                -4.5804860517       -2.6864069441        2.1421275520
H                -2.1783384161       -3.0945279317        1.6792673055
H                -0.0936598201       -2.4424392748        0.6296095861
H                 1.6793987227       -1.2472785132       -1.9849115609
H                 1.9625925956       -1.8948162470       -0.3616272091
H                 4.0437915059        1.0033327103       -1.9022655064
H                 3.7821613868       -0.7200504476       -2.1658313319
H                 5.9316890019       -0.2828654557       -0.9671494751
H                 4.8249849556       -1.2403530620        0.0344080843
H                 3.9584268856        1.6762230130        1.9768747665
H                 3.7507521297        2.3100091427        0.3320849457
H                 1.7614452304        0.9913513892        1.0671123404
H                 2.7925598705       -0.4194835425        1.3428336975
H                 0.1543267663        1.1494438323       -1.6935774658
H                -2.1973561475        1.6548782065       -1.2206404152



