%chk=./calculation/no_transfer_pubchem_sampling_1_b3lyp/69212619.chk
%nprocshared=7
%mem=6GB
#p b3lyp/6-31g(d) opt SCF=XQC 

Gaussian input prepared by ASE

0 1
N                -3.9113334863        2.5440867324        0.2763549845
C                -4.5398978404        1.3870981479       -0.0570701306
O                -5.6092174789        1.3735924546       -0.6244721130
C                -3.8211879175        0.1493485497        0.3800641361
C                -4.5230407762       -0.7501915931        1.1456681924
C                -3.9100512908       -1.9094006385        1.6369575129
C                -2.5990004548       -2.1659586560        1.3481753946
C                -1.8556936136       -1.2884353495        0.5321398225
C                -0.5118029191       -1.5595281087        0.1972295710
C                 0.1992392835       -0.7292004806       -0.6250578036
C                 1.6276281531       -1.0112646778       -1.0041905766
N                 2.4506515486        0.1613738482       -0.7715596435
C                 3.7796575331        0.1018168412       -1.3690848384
C                 4.8565062586       -0.2559966429       -0.3459402523
O                 4.9402385431        0.7099878587        0.6860273189
C                 3.7180950746        1.3823021728        0.9244240213
C                 2.5114839805        0.4966506736        0.6456562169
C                -0.4276894932        0.4180474326       -1.1495920611
C                -1.7204164365        0.7198211545       -0.8333979238
C                -2.4719350434       -0.1116125629        0.0277029354
H                -3.0646494069        2.5516161352        0.8160618335
H                -4.3686489604        3.4179609285        0.0739803583
H                -5.5581777943       -0.5476133829        1.3767636454
H                -4.4815190481       -2.5927197753        2.2471723201
H                -2.1143461404       -3.0530810154        1.7301506698
H                -0.0551451512       -2.4546447459        0.5972477459
H                 1.6655496967       -1.2388602819       -2.0745972799
H                 1.9898018549       -1.8973608319       -0.4508910503
H                 4.0098524926        1.0864358014       -1.7934218328
H                 3.7903330351       -0.6258761958       -2.1819857288
H                 5.8426919159       -0.2956828092       -0.8161417900
H                 4.6404985432       -1.2451852390        0.0875471235
H                 3.7375346343        1.6837896118        1.9749132467
H                 3.6567081686        2.2868600630        0.3022325678
H                 1.5924950127        1.0239359442        0.9191419093
H                 2.5819133543       -0.4079572596        1.2745507584
H                 0.1438308489        1.0551545141       -1.8069771903
H                -2.1909536803        1.5906923826       -1.2645260701



