%chk=calculation/no_transfer_pubchem_sampling_1_b3lyp/70087362_rwf.chk
%rwf=calculation/no_transfer_pubchem_sampling_1_b3lyp/70087362_rwf.rwf
%nprocshared=14
%mem=3GB
#p b3lyp/6-31g(d) 6D 10F nosymm GFInput td=(50-50,nstate=2) SCF=XQC 

Gaussian input prepared by ASE

0 1
C                -2.8192551756       -7.3855953318        0.7548041181
C                -3.3344116578       -6.0020843479        1.1473560241
N                -2.9537735358       -4.9922832210        0.1658069443
C                -2.6948161446       -3.6928652507        0.5451662617
O                -2.6094196701       -3.3412713577        1.7215511471
N                -2.5538299929       -2.8149590753       -0.5226921072
C                -2.0265979966       -1.4680395700       -0.2912023827
C                -2.7040500939       -0.4777275371       -1.2600757273
C                -2.3033458245        0.9688323752       -1.0569587327
C                -2.5819535994        1.6442613500        0.1440806660
C                -2.2202928527        2.9722482798        0.3297504014
C                -1.5748192436        3.6756387874       -0.6980015216
O                -1.2482903638        4.9747761336       -0.4167525852
C                -0.6864827902        5.7636592303       -1.4542275858
C                -1.3049018906        3.0298071463       -1.9085422673
C                -1.6609979757        1.6858900909       -2.0678231118
C                -0.5041644605       -1.5050047227       -0.5262866168
O                -0.0795162047       -1.7117431709       -1.6670999296
N                 0.3337478913       -1.3708764138        0.5323415522
C                -0.0097626427       -1.2154107599        1.9582857308
C                 1.2379802404       -1.7591388076        2.6645417205
C                 2.3845148961       -1.3412680988        1.7319500731
C                 1.7803763394       -1.4891242998        0.3119333539
C                 2.3750463991       -0.4453895980       -0.6282727682
O                 3.3665685882       -0.6494315950       -1.2955405635
O                 1.7313381765        0.7320991803       -0.5330143492
C                 2.2611859198        1.8381632288       -1.3149808126
C                 3.1736386177        2.7046327290       -0.4838590254
C                 4.5483106686        2.4378161833       -0.4215691786
C                 5.3877077570        3.2343628337        0.3578498031
C                 4.8622172840        4.3051182220        1.0845651917
C                 3.4933280525        4.5754512259        1.0310423920
C                 2.6541551609        3.7786275044        0.2510769321
H                -3.1163562386       -8.1281254732        1.5036336366
H                -1.7271927317       -7.3877086298        0.6767378557
H                -3.2289548088       -7.7090617489       -0.2105164799
H                -2.9092662058       -5.6790712838        2.0995132406
H                -4.4272951905       -6.0270722104        1.2770656591
H                -3.2808977848       -5.1381618003       -0.7808591776
H                -2.2376698735       -3.2163339476       -1.3997888488
H                -2.2784283123       -1.2136008495        0.7365242943
H                -2.4592864443       -0.7828865377       -2.2828943934
H                -3.7871938434       -0.5990182245       -1.1322236936
H                -3.0986083725        1.1240129983        0.9480841076
H                -2.4347255185        3.4912956556        1.2589149245
H                -0.5594985092        6.7634537407       -1.0348131162
H                 0.2924993453        5.3801476183       -1.7714147216
H                -1.3525319634        5.8168273689       -2.3254165583
H                -0.8215790968        3.5524646699       -2.7266674551
H                -1.4292372778        1.1890452247       -3.0064407184
H                -0.9081221369       -1.7837954159        2.2044447978
H                -0.1695597903       -0.1548867713        2.1966807567
H                 1.3483596479       -1.3640273605        3.6788218471
H                 1.1758435009       -2.8516293068        2.7310942078
H                 3.2900003570       -1.9421753589        1.8470448583
H                 2.6501028147       -0.2932290672        1.9117488084
H                 2.0134757482       -2.4619796821       -0.1316919871
H                 2.7773466483        1.4282234035       -2.1848421635
H                 1.3728942335        2.3860540114       -1.6316964218
H                 4.9501607572        1.5982655349       -0.9819366393
H                 6.4527614512        3.0208311995        0.3959841860
H                 5.5171561300        4.9271692842        1.6891937991
H                 3.0792142574        5.4071305882        1.5951606545
H                 1.5871553319        3.9886730279        0.2154516943



