%chk=./calculation/no_transfer_pubchem_sampling_1_b3lyp/70087362.chk
%nprocshared=7
%mem=6GB
#p b3lyp/6-31g(d) opt SCF=XQC 

Gaussian input prepared by ASE

0 1
C                -2.6470665673       -6.9316712212        0.8755792265
C                -3.5765512457       -5.7348214229        1.0489547144
N                -3.2694279842       -4.6788216875        0.1131580117
C                -2.8188935390       -3.4600324071        0.5118076665
O                -2.6695678174       -3.1574390792        1.6824697220
N                -2.6106201499       -2.5765499696       -0.5165789036
C                -1.9272983884       -1.3180794655       -0.2755059086
C                -2.4280737861       -0.2595436047       -1.2633458754
C                -1.8325059977        1.0946061685       -0.9959982915
C                -2.0365344807        1.7413402977        0.2198933674
C                -1.5221161355        2.9986892873        0.4490491254
C                -0.7906297425        3.6577036960       -0.5404581771
O                -0.3531613506        4.9091972474       -0.2253469727
C                 0.3388255028        5.6420953450       -1.2056297778
C                -0.5736727970        3.0162100438       -1.7527803622
C                -1.0890192146        1.7472607900       -1.9651965540
C                -0.4254151694       -1.5516019421       -0.4793832730
O                 0.0350682086       -1.7208836695       -1.5986936951
N                 0.3412724506       -1.6435630006        0.6147354667
C                -0.0265472738       -1.4517634525        2.0072227684
C                 1.1872934661       -1.9767975088        2.7704555533
C                 2.3499380092       -1.6373900707        1.8409776151
C                 1.7615306263       -1.9149054912        0.4544293833
C                 2.3885829349       -1.0243361585       -0.6119069358
O                 3.2599320178       -1.3787063548       -1.3578641475
O                 1.9085585499        0.2118362241       -0.5175014600
C                 2.4315413809        1.1985698770       -1.4008280174
C                 2.7177637869        2.4714016161       -0.6518987091
C                 3.6345706728        3.3833100796       -1.1602603117
C                 3.8915979263        4.5639460211       -0.4857078909
C                 3.2392460327        4.8410815832        0.7046322942
C                 2.3258624719        3.9351981155        1.2150468171
C                 2.0635041541        2.7568802090        0.5385691718
H                -2.8895258951       -7.6984774652        1.6058861947
H                -1.6129500561       -6.6282478032        1.0179309066
H                -2.7509606068       -7.3571058830       -0.1207602299
H                -3.4596879061       -5.3014160726        2.0443640564
H                -4.6189813704       -6.0473945908        0.9184749782
H                -3.3652946061       -4.8813278592       -0.8680991701
H                -2.4903501328       -2.9422347924       -1.4496716409
H                -2.1539590131       -1.0279095468        0.7497388139
H                -2.1620694726       -0.5811290400       -2.2721043490
H                -3.5175630236       -0.2089180113       -1.1865402170
H                -2.6197015236        1.2603731284        0.9918716539
H                -1.6831158163        3.5050135658        1.3879253722
H                 0.5721868308        6.6009580487       -0.7457071444
H                 1.2704942436        5.1470130485       -1.4961618766
H                -0.2812133203        5.8079157425       -2.0929625924
H                -0.0095708737        3.4934581700       -2.5390971965
H                -0.9128442823        1.2610888686       -2.9140872255
H                -0.9352037995       -2.0059560431        2.2518862736
H                -0.1806355535       -0.3844242436        2.2076459479
H                 1.2865357905       -1.5183938949        3.7518209510
H                 1.1097990448       -3.0571886667        2.8943774639
H                 3.2418129848       -2.2297503136        2.0315148235
H                 2.6023422291       -0.5790503436        1.9260653210
H                 1.9181724951       -2.9567061041        0.1468762010
H                 3.3382030744        0.8062477998       -1.8758089411
H                 1.6770299919        1.3756219059       -2.1772539911
H                 4.1468446009        3.1653323126       -2.0864567531
H                 4.6052572374        5.2676575152       -0.8887127202
H                 3.4422722268        5.7619721688        1.2306997692
H                 1.8093059541        4.1494866147        2.1383230551
H                 1.3453839957        2.0510736899        0.9260266254



