%chk=./calculation/no_transfer_pubchem_sampling_1_b3lyp/70369034.chk
%nprocshared=7
%mem=6GB
#p b3lyp/6-31g(d) opt SCF=XQC 

Gaussian input prepared by ASE

0 1
C                -4.7581854649       -2.3791100149        0.2232071446
C                -3.6708298376       -1.7594482389       -0.6166965042
O                -3.1891139081       -2.3641906536       -1.5593674620
N                -3.2623158322       -0.4896556667       -0.3216592700
C                -3.4284176983        0.1610220512        0.9598231047
C                -2.6616290229       -0.5348850360        2.1201854562
O                -3.5657892519       -0.6846709064        3.2148117564
C                -4.7792550530       -0.2464074347        2.8427637692
C                -5.9119139450       -0.2606575644        3.6460047077
C                -7.0899160301        0.2182514226        3.1077362801
C                -7.1283621481        0.6919739049        1.7983933398
N                -8.3693759546        1.1739009790        1.2633665392
O                -9.3286408855        1.2130967857        2.0060086957
O                -8.3882363914        1.5126798462        0.0976158886
C                -5.9900931016        0.7101403127        0.9895964044
C                -4.8207572686        0.2360494013        1.5275523966
C                -2.2341718374        0.0767993477       -1.2041016513
C                -2.3996711386        1.5750507818       -1.4748871037
C                -3.8294834032        2.0038658431       -1.6619328679
C                -4.3205036525        3.1159545088       -0.9896111024
C                -5.6284668565        3.5329794971       -1.1705075732
C                -6.4684666833        2.8350713403       -2.0211084738
C                -5.9887142364        1.7217531743       -2.6917287833
C                -4.6785177209        1.3112224558       -2.5175811374
C                -0.8728809600       -0.2330337400       -0.5662055149
O                -0.2455501598        0.5887800423        0.0866320458
N                -0.5194977234       -1.5148479684       -0.6918517801
C                 0.7346667816       -2.0190897331       -0.1765285968
C                 0.7376941911       -3.5456958249       -0.1932205112
C                -0.3686744591       -4.1754511769        0.6643337453
C                -0.1365721522       -3.9274615278        2.1532465635
C                -0.4334117077       -5.6760371231        0.3878909016
C                 1.8776958081       -1.4630426014       -1.0514356565
O                 1.6955358560       -1.1591411215       -2.2115659305
N                 3.0601719100       -1.3725339263       -0.4181095457
C                 4.1493151014       -0.5666267115       -0.9353409425
C                 5.4664626873       -1.3425917166       -0.8509025949
C                 6.5530216552       -0.8097674134       -1.7908182751
C                 7.9276671465       -1.3310250326       -1.3653500058
C                 9.0231302793       -0.7946081524       -2.2822396324
C                 8.7479524325       -1.1816788618       -3.7315606465
C                 7.3780578012       -0.6690087442       -4.1636556298
C                 6.2896662230       -1.2130613124       -3.2427944961
C                 4.1943696359        0.7334574318       -0.1052149105
O                 4.3561641059        0.3639114755        1.2469964073
C                 2.9085591219        1.5489556866       -0.3154427459
C                 2.7431948683        2.6451892912        0.7246523771
O                 3.6434705069        3.0123862161        1.4624105463
N                 1.5079409908        3.1749875284        0.7358792066
C                 1.0977494407        4.1858660569        1.6812918063
C                 0.2514714185        3.6257717520        2.8342161300
C                -1.0585546557        3.0378353262        2.3135005076
C                -0.0188463425        4.7295116724        3.8525830588
H                -4.4966320833       -2.4188127212        1.2761938380
H                -4.9140925287       -3.3922556329       -0.1405210798
H                -5.6828842716       -1.8188465590        0.1113297726
H                -3.0549131874        1.1797586280        0.8348499705
H                -1.8077565900        0.0529129587        2.4632584252
H                -2.3057327357       -1.5276843663        1.8248130274
H                -5.8625879035       -0.6365381028        4.6539984743
H                -7.9992040192        0.2298940572        3.6887539141
H                -6.0507092367        1.0823637101       -0.0203070319
H                -2.3158100462       -0.4784342930       -2.1420791307
H                -1.9363014940        2.1504003373       -0.6698804724
H                -1.8320261857        1.7947030404       -2.3839210611
H                -3.6713561266        3.6674739247       -0.3230921645
H                -5.9932227550        4.4010797891       -0.6420184456
H                -7.4923575818        3.1463885919       -2.1505211950
H                -6.6393238408        1.1709320333       -3.3539912191
H                -4.3151580133        0.4466809243       -3.0527657493
H                -1.0345792055       -2.1019402015       -1.3359324514
H                 0.8569911474       -1.6296067173        0.8406058948
H                 0.6162074907       -3.8693980942       -1.2295730186
H                 1.7112413766       -3.8972777022        0.1539499626
H                -1.3292053011       -3.7336312286        0.3765171712
H                -0.1354762586       -2.8654132151        2.3874198010
H                 0.8180675820       -4.3482060872        2.4618588240
H                -0.9211669292       -4.3994085150        2.7403266777
H                 0.5137437280       -6.1492149223        0.6375290766
H                -1.2158016221       -6.1397498108        0.9836971337
H                -0.6470267171       -5.8640255187       -0.6613190667
H                 3.1103578298       -1.5142596350        0.5806577853
H                 3.8991306732       -0.3320491424       -1.9729280470
H                 5.2679111583       -2.3885838285       -1.0939117758
H                 5.8155650179       -1.2949218384        0.1821872192
H                 6.5696153388        0.2834926769       -1.7300119999
H                 8.1316839660       -1.0318645073       -0.3350506055
H                 7.9247827937       -2.4229755136       -1.4026208621
H                 9.0611204440        0.2941570861       -2.2002083884
H                 9.9929916100       -1.1869213102       -1.9689529848
H                 9.5233608514       -0.7705145889       -4.3813069160
H                 8.7734904585       -2.2696927456       -3.8268845946
H                 7.1754639856       -0.9695337494       -5.1937513197
H                 7.3719516161        0.4229088205       -4.1269259141
H                 6.2714197121       -2.3032962842       -3.3125030786
H                 5.3159689705       -0.8438425947       -3.5685547860
H                 5.0551436051        1.3384516865       -0.4260201066
H                 4.3751411726        1.1964432632        1.7464379145
H                 2.9253777882        2.0029315423       -1.3078535842
H                 2.0315451252        0.9020920018       -0.2566122793
H                 0.7878700107        2.6993417062        0.2131066491
H                 0.5323304139        4.9588602855        1.1502630228
H                 2.0138780066        4.6269829124        2.0809153082
H                 0.8268734632        2.8294006179        3.3175290300
H                -1.6281697059        3.7995812798        1.7826920218
H                -1.6649586818        2.6758046769        3.1418181219
H                -0.8591577013        2.2070931982        1.6405531136
H                -0.5997826927        4.3437983087        4.6870120424
H                 0.9142972112        5.1301137911        4.2402661023
H                -0.5772736116        5.5421226498        3.3922005995



