%chk=calculation/no_transfer_pubchem_sampling_1_b3lyp/70769361_rwf.chk
%rwf=calculation/no_transfer_pubchem_sampling_1_b3lyp/70769361_rwf.rwf
%nprocshared=14
%mem=3GB
#p b3lyp/6-31g(d) 6D 10F nosymm GFInput td=(50-50,nstate=2) SCF=XQC 

Gaussian input prepared by ASE

0 1
C                 8.4874497640        1.4678903178        0.5807108526
O                 7.3719271962        0.6657032994        0.9125047080
C                 7.3204126722       -0.5262866442        0.1516111973
C                 6.1322111484       -1.3943929040        0.5770504969
O                 6.3238482499       -2.5737576157        0.8646705668
N                 4.8929812886       -0.8146916423        0.5915718203
C                 4.5966179661        0.5615082088        0.1650854345
C                 3.1338809440        0.6756142758       -0.3075664970
C                 2.7121948050       -0.5778785523       -1.0925725394
C                 1.3838687009       -0.4265598738       -1.8589698383
C                 0.1699802780       -0.0338780890       -1.0090091169
C                -1.1047900388        0.0597409227       -1.8509520817
O                -1.0854426986       -0.0714875493       -3.0715978275
N                -2.2757556178        0.3060041789       -1.1718028372
C                -3.5318263192        0.3377631833       -1.9229110378
C                -4.6562550606       -0.3389858063       -1.1410150941
N                -4.8267240078        0.2789364463        0.1726721034
C                -6.0668636380        0.2822512666        0.8058323218
C                -7.0645902331       -0.6484995074        0.4406596949
C                -8.3039210060       -0.6512796738        1.0757024550
C                -8.5937989286        0.2578043119        2.0942865229
C                -7.6141863293        1.1800413269        2.4632099541
C                -6.3723387960        1.2030928376        1.8317035774
C                -3.7110021367        1.0527911759        0.6893438887
C                -2.3730332134        0.4292836458        0.2832155102
C                 2.7500638219       -1.8128270507       -0.1530628425
C                 3.7414162245       -1.6140142989        1.0114495110
H                 9.4354937730        0.9369279967        0.7587908509
H                 8.4485740026        2.3528370934        1.2209577146
H                 8.4610111773        1.7852965577       -0.4745643509
H                 8.2166351636       -1.1399066811        0.3095435538
H                 7.2538501176       -0.2970659749       -0.9284154283
H                 5.2629168509        0.8250755919       -0.6617812385
H                 4.7992555300        1.2711550467        0.9760783661
H                 3.0386123020        1.5769820008       -0.9261545039
H                 2.4724981553        0.8225827344        0.5561791058
H                 3.4845079485       -0.7352978100       -1.8595553518
H                 1.5055015508        0.3221582580       -2.6499873292
H                 1.1597893135       -1.3658953906       -2.3784719626
H                 0.0110384182       -0.7491027000       -0.1909764405
H                 0.3389065961        0.9378936944       -0.5239162488
H                -3.3610129109       -0.1757742627       -2.8702871942
H                -3.8130877619        1.3742283190       -2.1569674099
H                -4.4477627247       -1.4179018163       -1.0570591505
H                -5.5839446921       -0.2324365527       -1.7158566156
H                -6.8617969027       -1.3912307210       -0.3232840440
H                -9.0471580827       -1.3849127266        0.7730485568
H                -9.5609801442        0.2483714887        2.5878287851
H                -7.8177490982        1.9062706022        3.2464521775
H                -5.6515644403        1.9598487272        2.1215016815
H                -3.7525736349        1.0531034919        1.7830787266
H                -3.7406635853        2.1074926581        0.3647754341
H                -2.2769321286       -0.5530404976        0.7697006636
H                -1.5682491399        1.0663232929        0.6649972756
H                 3.0272656712       -2.7006527695       -0.7328369880
H                 1.7577357095       -2.0136894417        0.2713257339
H                 4.1248909357       -2.5640480309        1.3818568765
H                 3.2486709947       -1.0994783691        1.8477068509



