%chk=./calculation/no_transfer_pubchem_sampling_1_b3lyp/70769361.chk
%nprocshared=7
%mem=6GB
#p b3lyp/6-31g(d) opt SCF=XQC 

Gaussian input prepared by ASE

0 1
C                 8.2113057650        1.3855011745        1.1245745096
O                 7.0126498926        0.6614856051        1.2332250797
C                 7.0841448278       -0.6004449916        0.6124464192
C                 5.8123942412       -1.4172731538        0.8439254812
O                 5.8858399479       -2.5505919310        1.2846394452
N                 4.6453733349       -0.8384570684        0.5110394310
C                 4.5182336796        0.4856583147       -0.0681877651
C                 3.1087558331        0.7035026375       -0.6142073851
C                 2.6891241678       -0.4905390962       -1.4739113950
C                 1.3508774534       -0.2614609994       -2.1851508754
C                 0.1944429564        0.1180494500       -1.2621819254
C                -1.1251367600        0.0659089191       -2.0139324517
O                -1.2017383042       -0.2128833784       -3.1945050645
N                -2.2306704659        0.3614046459       -1.2836653049
C                -3.5372274500        0.2308694147       -1.8980740235
C                -4.4838476322       -0.5088833917       -0.9594192233
N                -4.6445613981        0.2354278659        0.2723310711
C                -5.8429730300        0.2454476524        0.9514667508
C                -6.7418198666       -0.8199260573        0.8176609138
C                -7.9380990222       -0.8276127017        1.5063112663
C                -8.2741654068        0.2133839061        2.3550928482
C                -7.3908610602        1.2684695500        2.5011544594
C                -6.1951599421        1.2930116740        1.8096777529
C                -3.5911134449        1.1707646855        0.5792718377
C                -2.2389156386        0.6091274505        0.1415478361
C                 2.6909036411       -1.7772669285       -0.6245319936
C                 3.4117888513       -1.5705314869        0.7089820734
H                 9.0443346714        0.8503189837        1.5957314555
H                 8.0505220064        2.3313730091        1.6378976847
H                 8.4668514277        1.5770032278        0.0744312077
H                 7.9182627562       -1.1867090153        1.0228796296
H                 7.2482711424       -0.4898764456       -0.4741026084
H                 5.2385545833        0.5857059163       -0.8871788435
H                 4.7569282479        1.2465225849        0.6821128422
H                 3.1059195476        1.6143795049       -1.2151040567
H                 2.4090260704        0.8445815792        0.2090479987
H                 3.4462455146       -0.5994891285       -2.2584945884
H                 1.4679207186        0.5278716649       -2.9296655161
H                 1.0775168656       -1.1692782814       -2.7258443800
H                 0.1378661744       -0.5645593129       -0.4115216654
H                 0.3345539964        1.1298348113       -0.8766255033
H                -3.4045682474       -0.3209186668       -2.8312253276
H                -3.9447076757        1.2197597557       -2.1379619685
H                -4.0813115449       -1.5131115520       -0.7598293462
H                -5.4536214427       -0.6190577654       -1.4524342289
H                -6.4960531384       -1.6586101118        0.1853472670
H                -8.6120737406       -1.6632569585        1.3836492395
H                -9.2088361047        0.2018601199        2.8941759888
H                -7.6376020618        2.0923335897        3.1555491694
H                -5.5440026202        2.1446787610        1.9294975357
H                -3.5591403312        1.3251132536        1.6611277124
H                -3.7502614028        2.1487763687        0.0981025979
H                -2.0448640963       -0.3208972902        0.6943068052
H                -1.4604628885        1.3314674082        0.4035349068
H                 3.1889020724       -2.5750088661       -1.1763328896
H                 1.6730244752       -2.1105485020       -0.4209002713
H                 3.6756054046       -2.5301683198        1.1565381186
H                 2.7776584497       -1.0222320839        1.4132402661



