%chk=./calculation/no_transfer_pubchem_sampling_1_b3lyp/76311879.chk
%nprocshared=7
%mem=6GB
#p b3lyp/6-31g(d) opt SCF=XQC 

Gaussian input prepared by ASE

0 1
C                 6.4796623441        1.8452630073        1.2706579191
O                 5.5601952722        1.2129410163        0.4138938164
C                 4.3959050280        0.7436548803        0.9436385461
C                 4.0269596495        0.8434451637        2.2805633802
C                 2.8105964034        0.3206713565        2.6880742402
C                 1.9529421234       -0.2976799006        1.8007562412
C                 2.3189533172       -0.3967555143        0.4610853132
N                 1.5047796720       -0.9909157053       -0.5078087795
C                 0.2570390694       -1.5175567045       -0.3562179555
O                -0.3566010667       -1.6347535738        0.6864539334
N                -0.2673719032       -2.0142590798       -1.5363999440
N                -1.6624805121       -2.1883216313       -1.5397903112
C                -2.3646192383       -1.7048951639       -2.5992704051
O                -1.8092186647       -1.4266229768       -3.6438414899
C                -3.8392217898       -1.5448366516       -2.3224799454
C                -4.0998478834       -0.0385615927       -2.0906230640
C                -2.9733227462        0.6147936271       -1.3336931535
C                -2.0793153075        1.4481831980       -1.9841869710
C                -1.0095219730        2.0198085562       -1.3143308529
C                -0.8417871069        1.7733998340        0.0344896574
C                -1.7269847915        0.9504846228        0.7097670444
C                -2.7795947267        0.3499952356        0.0309454637
O                -3.6597233387       -0.5279317939        0.5998544376
C                -3.4331042716       -0.9256018683        1.9333828439
C                 3.5352677523        0.1239089920        0.0415706541
H                 6.0521334566        2.7437181699        1.7273364389
H                 7.3217939956        2.1285413484        0.6411917024
H                 6.8282877331        1.1679749922        2.0569037144
H                 4.6691565011        1.3182612838        3.0044185388
H                 2.5283695333        0.3993435874        3.7273576959
H                 1.0126919446       -0.7023177708        2.1302175292
H                 1.8874653285       -0.9822784934       -1.4426550153
H                 0.0219152799       -1.6482527153       -2.4411127682
H                -2.0349293704       -2.1883582425       -0.5952883359
H                -4.4194415383       -1.8880894946       -3.1782889031
H                -4.1190284968       -2.1149096485       -1.4387166359
H                -4.1991495210        0.4553107243       -3.0575916062
H                -5.0331723060        0.0743665900       -1.5372549484
H                -2.2157453472        1.6374319474       -3.0387465626
H                -0.3158086104        2.6546340041       -1.8444572686
H                -0.0137832228        2.2115994387        0.5719476794
H                -1.5711957570        0.7639732004        1.7590244994
H                -4.1852991682       -1.6846787196        2.1448457054
H                -2.4332148953       -1.3534218604        2.0510021892
H                -3.5612304615       -0.0901811068        2.6286197455
H                 3.8405976110        0.0594734322       -0.9919050132



