%chk=./calculation/no_transfer_pubchem_sampling_1_b3lyp/80490295.chk
%nprocshared=7
%mem=6GB
#p b3lyp/6-31g(d) opt SCF=XQC 

Gaussian input prepared by ASE

0 1
C                 3.4598647496       -1.2004487021        2.5222754341
C                 3.7208578278       -0.3510256116        1.3161489602
C                 4.9216103890        0.3323846544        1.1696076253
C                 5.1611044835        1.0999736849        0.0445106626
C                 4.2014147928        1.2004634744       -0.9471650868
C                 2.9980857056        0.5215062692       -0.8191976590
C                 1.9352963869        0.6191086739       -1.8851999887
N                 0.6305479145        0.8339012169       -1.3261556651
N                -0.4019967276       -0.0367207247       -1.5523235974
C                -1.3987345853        0.4946036340       -0.8692553081
N                -2.6521283806       -0.0124486416       -0.8663929728
C                -3.6039301922        0.4332441202        0.1280629830
C                -4.1024376033       -0.7554464607        0.9455838734
C                -4.8485789290       -1.7482798871        0.0436046893
C                -4.3223746671       -1.6856951157       -1.3965138304
C                -2.8408600202       -1.3378485725       -1.4175146973
N                -1.0739563758        1.6442507543       -0.2090838110
C                 0.1965752171        1.8164838181       -0.5133610445
N                 1.0043310088        2.8052286562       -0.0207284488
C                 2.7702750340       -0.2504480978        0.3106375350
H                 4.0646894008       -0.8758985995        3.3655943319
H                 3.7087726945       -2.2399171832        2.3060846263
H                 2.4098901463       -1.1583841243        2.8025204070
H                 5.6728758531        0.2643308380        1.9432400251
H                 6.0976470233        1.6283622782       -0.0584133792
H                 4.3903051155        1.8048713820       -1.8236579418
H                 1.8679367101       -0.3188502429       -2.4444803848
H                 2.1786790906        1.4242147096       -2.5920690655
H                -3.1024126284        1.1698698308        0.7575353978
H                -4.4518086582        0.9232616023       -0.3680266733
H                -4.7523482632       -0.4077526491        1.7493231926
H                -3.2393478896       -1.2421235337        1.4038665126
H                -4.7274711085       -2.7578525932        0.4404076641
H                -5.9165909554       -1.5233782049        0.0434927454
H                -4.4806410986       -2.6413332543       -1.8975513274
H                -4.8630757285       -0.9231393075       -1.9589482455
H                -2.4479419849       -1.3337274512       -2.4381346432
H                -2.2670612189       -2.0854619446       -0.8496016387
H                 1.7840323586        3.0656264878       -0.6035519843
H                 0.4881416709        3.5801302703        0.3640084597
H                 1.8307634421       -0.7756364533        0.4068712683



