%chk=./calculation/no_transfer_pubchem_sampling_1_b3lyp/82097008.chk
%nprocshared=7
%mem=6GB
#p b3lyp/6-31g(d) opt SCF=XQC 

Gaussian input prepared by ASE

0 1
C                 2.0125879251        1.9474116794        0.3224849199
C                 2.8843930348        0.8894122731       -0.3422767936
C                 2.1282803906        0.0255603639       -1.3547437362
N                 1.1097786927       -0.7972846759       -0.7191637189
C                 1.5225330640       -1.9969412916       -0.2247129307
O                 2.6625798598       -2.3964568980       -0.3260052167
C                 0.4285324601       -2.8365461295        0.4177427149
O                -0.5270889028       -2.0821971441        1.1284367157
C                -0.9946815073       -0.9988323994        0.4460145448
C                -2.2603951434       -0.5369314662        0.7556418564
C                -2.7818892578        0.5675724240        0.0817987553
N                -4.0194608888        1.0546342316        0.3634823304
C                -5.0274506951        0.9903347827        1.0044843516
S                -6.4133055162        1.1200205976        1.6945388300
C                -2.0298925320        1.1814834627       -0.9161779934
C                -0.7599160988        0.7253392461       -1.2061055720
C                -0.2043296858       -0.3511519409       -0.5202732369
H                 1.5810911031        2.6157175042       -0.4196669872
H                 1.2019130384        1.4912168384        0.8861384300
H                 2.6096208539        2.5416881443        1.0097974368
H                 3.7088930518        1.3739105059       -0.8684178795
H                 3.3135834439        0.2334799391        0.4169678189
H                 1.6757557495        0.6422048304       -2.1290661586
H                 2.8334744973       -0.6663747822       -1.8226925967
H                 0.8811635831       -3.5266301120        1.1317387110
H                -0.0629671800       -3.4225625911       -0.3767983053
H                -2.8292487739       -1.0397136196        1.5210498988
H                -2.4429258374        2.0205263344       -1.4523728916
H                -0.2006287287        1.2311118928       -1.9748672973



