%chk=./calculation/no_transfer_pubchem_sampling_1_b3lyp/82397031.chk
%nprocshared=7
%mem=6GB
#p b3lyp/6-31g(d) opt SCF=XQC 

Gaussian input prepared by ASE

0 1
C                -3.7163397222        1.3093326063       -0.3516757550
C                -2.5503062938        0.3417012274       -0.5427028287
C                -1.2406028188        0.9740141482       -0.0726291213
N                -0.1216857927        0.0898509886       -0.3178407306
C                 1.1700533720        0.5552278447       -0.2817980711
C                 1.4653303643        1.8903770871        0.0172187823
C                 2.7648602228        2.3583091107       -0.0211965516
C                 3.8112081166        1.5130041849       -0.3402679500
C                 3.5360559017        0.1812631524       -0.6026113441
C                 2.2431394411       -0.3047099340       -0.5805662015
C                 1.9591315224       -1.7587872981       -0.8266547800
C                 0.7808204046       -2.1690657941        0.0470023348
C                -0.4320752688       -1.3284197243       -0.3323153724
C                -1.6042756803       -1.5683591623        0.6314560024
N                -2.8120676216       -0.8682806171        0.2292556769
H                -3.5588619797        2.2171193422       -0.9281258882
H                -3.8127500867        1.5651789835        0.6996879766
H                -4.6428675914        0.8436368204       -0.6769741342
H                -2.4478539733        0.1270111900       -1.6221314568
H                -1.3312461536        1.2284263319        0.9940305940
H                -1.0887674417        1.8990344948       -0.6365271745
H                 0.6802930965        2.5753007371        0.2939333037
H                 2.9578527351        3.3962455135        0.2097473124
H                 4.8261992276        1.8784711806       -0.3706827475
H                 4.3437853536       -0.5000161877       -0.8329236861
H                 2.8409567704       -2.3586232285       -0.5946087535
H                 1.7101701936       -1.9249356644       -1.8797684288
H                 1.0305834160       -1.9955470011        1.0962706669
H                 0.5433328780       -3.2261960108       -0.0814226204
H                -0.7506783436       -1.6194782163       -1.3494419973
H                -1.3110473984       -1.2082547001        1.6254246252
H                -1.8104277359       -2.6369520731        0.7120401937
H                -3.4319181134       -1.4758793322       -0.2931648750



