%chk=calculation/no_transfer_pubchem_sampling_1_b3lyp/84308512_rwf.chk
%rwf=calculation/no_transfer_pubchem_sampling_1_b3lyp/84308512_rwf.rwf
%nprocshared=14
%mem=3GB
#p b3lyp/6-31g(d) 6D 10F nosymm GFInput td=(50-50,nstate=2) SCF=XQC 

Gaussian input prepared by ASE

0 1
C                 5.3028176502        1.7332052876        0.8299433786
C                 5.1834813501        0.3139555284        0.3656216758
C                 6.1981765919       -0.6093724414        0.3908001802
C                 6.0005556765       -1.9398108636       -0.0694544246
C                 4.7773727445       -2.3345996764       -0.5541094837
C                 3.7156269558       -1.4035630082       -0.5899385949
N                 2.4593152834       -1.5375823876       -1.0076407140
C                 1.8757494895       -0.3151210885       -0.8175053881
C                 0.4327047878       -0.0864508732       -1.1514161559
C                -0.5011253515       -0.8936591001       -0.2258172887
N                -1.9103844301       -0.7571159468       -0.5692723415
C                -2.6492878741        0.3267519308       -0.1868165279
O                -2.1901023285        1.2116154921        0.5304508527
C                -4.0816601950        0.3705046816       -0.7194673407
C                -5.0854587840        0.8999583191        0.3208108797
C                -5.2179103327       -0.0580317347        1.5130228221
C                -6.4485414176        1.1715031599       -0.3291941927
C                 2.7678988499        0.5909709975       -0.2737762163
N                 3.9582166203       -0.0946546593       -0.1234042112
H                 4.5981937127        1.9481296797        1.6442199357
H                 6.3145243175        1.9304202536        1.1921295142
H                 5.0848659569        2.4393722310        0.0177419425
H                 7.1660668557       -0.3027280656        0.7730673891
H                 6.8276516076       -2.6421720197       -0.0340341923
H                 4.5876204455       -3.3394609079       -0.9141039211
H                 0.1825276235        0.9753881443       -1.0617376648
H                 0.2493402881       -0.3876183283       -2.1909459412
H                -0.2343309978       -1.9533591963       -0.2675171299
H                -0.3776130523       -0.5500603288        0.8046087646
H                -2.3141347074       -1.4140814571       -1.2214764915
H                -4.3965044112       -0.6181078966       -1.0829030682
H                -4.0777214881        1.0398461836       -1.5916220252
H                -4.6760214046        1.8473543247        0.6923384592
H                -5.5977037230       -1.0379521568        1.1930976858
H                -4.2533316619       -0.2098099639        2.0086887346
H                -5.9164795630        0.3401206114        2.2582221506
H                -6.8895312916        0.2487851419       -0.7295776331
H                -7.1551251804        1.5845679759        0.4002317136
H                -6.3648173930        1.8870252170       -1.1562746945
H                 2.6550787806        1.6258399410        0.0065555627



