%chk=./calculation/no_transfer_pubchem_sampling_1_b3lyp/84597665.chk
%nprocshared=7
%mem=6GB
#p b3lyp/6-31g(d) opt SCF=XQC 

Gaussian input prepared by ASE

0 1
C                -2.7713437717        0.7234246816       -2.1763436145
S                -0.9767516266        0.7003384946       -1.8623473675
O                -0.3782801978       -0.1847070448       -2.8177363178
O                -0.5304646402        2.0578830979       -1.7990910472
N                -0.7521210267        0.0277850157       -0.3780637734
C                -1.2496295463        0.7286149481        0.7863573280
C                -2.3362235666       -0.1887333612        1.3477022487
C                -1.7571371439       -1.5763402946        1.0648966831
C                -0.9689826466       -1.4032248774       -0.2463699892
C                 0.3656853462       -2.1712619527       -0.2613706070
C                 1.2939991411       -1.6554136604        0.8197003220
O                 1.3976589519       -2.2503684528        1.8740055434
C                 1.9913851094       -0.3735998298        0.5791322662
C                 2.1062601623        0.2296280207       -0.6734914045
C                 2.7236203405        1.4610616042       -0.7932659904
C                 3.2368650728        2.1030247774        0.3217832774
C                 3.1461289208        1.5032904437        1.5685191451
C                 2.5308093795        0.2747855460        1.6941555252
H                -2.9022026474        1.0794744000       -3.1893501041
H                -3.2331202750        1.4037828137       -1.4740547483
H                -3.1604002735       -0.2809654375       -2.0776513769
H                -0.4326032157        0.8449391111        1.5070599676
H                -1.5922861507        1.7184948058        0.4887403247
H                -3.2737935883       -0.0461208487        0.8074403267
H                -2.5144555109       -0.0199427279        2.4070951211
H                -2.5255983398       -2.3417453943        0.9757403477
H                -1.0738449412       -1.8642236299        1.8637290157
H                -1.5504739356       -1.7488923950       -1.1095298909
H                 0.8108753821       -2.0671899838       -1.2485152636
H                 0.1571838083       -3.2246453738       -0.0640806314
H                 1.7202471904       -0.2428826765       -1.5606582201
H                 2.7934272539        1.9249638951       -1.7647542842
H                 3.7105491618        3.0683301944        0.2199785241
H                 3.5514141179        1.9967677844        2.4398258145
H                 2.4436047060       -0.2063336934        2.6577528498



