%chk=./calculation/no_transfer_pubchem_sampling_1_b3lyp/8559715.chk
%nprocshared=7
%mem=6GB
#p b3lyp/6-31g(d) opt SCF=XQC 

Gaussian input prepared by ASE

0 1
C                 5.8122387201       -1.8181024621       -2.5998907135
C                 5.9097536603       -0.3352436704       -2.2600142576
C                 5.7661246761       -0.0687922280       -0.7593714081
C                 4.3328002805       -0.2289284828       -0.2306856127
C                 3.6083420436        1.1008744658        0.0288247330
C                 3.4112771235        1.9104282659       -1.2591816734
C                 2.6848441575        3.2346285696       -1.0462402036
C                 2.2903507434        0.8375837116        0.7700304007
N                 1.3657758444        0.0879161084       -0.0480071229
C                 0.1575632087       -0.3666915320        0.3263004764
S                -0.8393206704       -1.1163936007       -0.7666539642
N                -0.2422457622       -0.1356055447        1.5990909512
N                -1.3697755070       -0.7719063341        2.1049011898
C                -1.5055384296       -0.9131270885        3.4308040118
O                -0.6495107247       -0.5599736186        4.2210361237
C                -2.8037227573       -1.6046598951        3.8430410028
C                -3.9944972817       -1.1030535540        3.1124139415
N                -4.0776068007       -0.9787402364        1.8373919436
C                -5.2862216181       -0.5014430791        1.4183442283
C                -5.5277215687       -0.3048041083       -0.0058848294
C                -4.5508944458       -0.6809569152       -0.9273971964
C                -4.7573344474       -0.4993166435       -2.2810845033
C                -5.9404778557        0.0560783644       -2.7382476773
C                -6.9179950922        0.4309944696       -1.8302309306
C                -6.7163745097        0.2547871959       -0.4750697451
C                -6.1576761465       -0.2581637942        2.4454441645
S                -5.4491952282       -0.6293753193        3.9648071993
H                 5.9219507346       -1.9693452481       -3.6711990316
H                 4.8527652555       -2.2296268746       -2.2961941406
H                 6.5965776970       -2.3761170524       -2.0930620773
H                 5.1446974497        0.2131688165       -2.8115314721
H                 6.8831276918        0.0354942501       -2.5895472982
H                 6.1210400297        0.9394162481       -0.5357117029
H                 6.4249200322       -0.7615712737       -0.2321749094
H                 4.3604247889       -0.7804321481        0.7112801833
H                 3.7495736943       -0.8252411643       -0.9330364247
H                 4.2263063606        1.6987512380        0.7089712104
H                 4.3969672257        2.1212075097       -1.6755988545
H                 2.8684895044        1.3187483144       -2.0000268012
H                 2.7224259376        3.8276765787       -1.9569522624
H                 1.6390500241        3.0798003119       -0.7935136969
H                 3.1554723057        3.8060072733       -0.2488920270
H                 2.5123478280        0.2632253329        1.6786609417
H                 1.8387128880        1.7889177870        1.0778358688
H                 1.5546621602        0.0291220319       -1.0363776075
H                 0.4089524223        0.0904214818        2.3457049919
H                -2.1170027801       -0.9779183661        1.4386271529
H                -2.6744257460       -2.6725973730        3.6370615544
H                -2.9318936187       -1.4761473476        4.9182452510
H                -3.6281138039       -1.1160281640       -0.5791067686
H                -3.9865619066       -0.7931409385       -2.9775214013
H                -6.1028237435        0.1978218180       -3.7966476723
H                -7.8431696240        0.8652165285       -2.1810069767
H                -7.4851243761        0.5569536842        0.2198920746
H                -7.1623110433        0.1082077011        2.4077403678



