%chk=calculation/no_transfer_pubchem_sampling_1_b3lyp/8559715_rwf.chk
%rwf=calculation/no_transfer_pubchem_sampling_1_b3lyp/8559715_rwf.rwf
%nprocshared=14
%mem=3GB
#p b3lyp/6-31g(d) 6D 10F nosymm GFInput td=(50-50,nstate=2) SCF=XQC 

Gaussian input prepared by ASE

0 1
C                 6.0316309886       -1.5775016718       -2.9511222181
C                 6.1878806092       -0.1925821251       -2.3116669929
C                 5.9821618287       -0.1857054122       -0.7848182102
C                 4.5282194232       -0.4164405379       -0.3033623081
C                 3.7722163188        0.8612087865        0.1312901797
C                 3.6002717157        1.8869990781       -1.0095394209
C                 2.9170714117        3.1977771595       -0.6016398996
C                 2.4444813160        0.5075234733        0.8291379254
N                 1.4860429732       -0.1014833267       -0.0864572042
C                 0.2109320071       -0.4649195386        0.2027397546
S                -0.8169656447       -1.1337652891       -0.9616112932
N                -0.1770548313       -0.2071277937        1.4781323496
N                -1.3852055969       -0.6603409610        1.9828577390
C                -1.5223643847       -0.6454759637        3.3282394824
O                -0.5902783245       -0.3378309858        4.0727787400
C                -2.8735763979       -1.1179565291        3.8725589042
C                -4.0963282351       -0.6667426441        3.1198467890
N                -4.2440829555       -0.7456949251        1.8299526491
C                -5.4889950718       -0.3016205047        1.4083141140
C                -5.8313366168       -0.3212709984       -0.0277535901
C                -4.8302786514       -0.5167167416       -0.9927955957
C                -5.1484495950       -0.5208549262       -2.3501652379
C                -6.4663156946       -0.3341747172       -2.7689245698
C                -7.4706547618       -0.1465754008       -1.8159821264
C                -7.1570441098       -0.1429622705       -0.4596149585
C                -6.2973487957        0.1292978849        2.4321565745
S                -5.4968108459       -0.0223432814        3.9573033023
H                 6.1947336198       -1.5325329339       -4.0337906257
H                 5.0311684826       -1.9953937974       -2.7883564592
H                 6.7567375607       -2.2868798007       -2.5333037728
H                 5.4912087287        0.5100052543       -2.7876756134
H                 7.1956993481        0.1855939522       -2.5296065395
H                 6.3513022221        0.7641663430       -0.3735365577
H                 6.6279899923       -0.9627204500       -0.3545130317
H                 4.5360341995       -1.1010939258        0.5544411654
H                 3.9601212370       -0.9377946844       -1.0861737388
H                 4.3784583194        1.3443048471        0.9128401832
H                 4.5948181700        2.1177852223       -1.4084324625
H                 3.0459662150        1.4330952465       -1.8436309697
H                 2.9351975152        3.9150290973       -1.4293348521
H                 1.8677903858        3.0465933891       -0.3263143991
H                 3.4261641810        3.6636193648        0.2514355102
H                 2.6584034474       -0.1836152862        1.6593694655
H                 2.0027751391        1.4129926518        1.2673229490
H                 1.7476931546       -0.2573662248       -1.0488318676
H                 0.4658642522       -0.0120687840        2.2408018942
H                -2.1523812498       -0.7890845723        1.3232715197
H                -2.8520105677       -2.2169377509        3.8905595181
H                -2.9111076159       -0.7841146770        4.9116176645
H                -3.8009736152       -0.6617433018       -0.6827376938
H                -4.3574595365       -0.6700023368       -3.0799693610
H                -6.7116914883       -0.3392767599       -3.8275670459
H                -8.5024702210       -0.0102393246       -2.1290026663
H                -7.9542312853       -0.0174133924        0.2679256911
H                -7.2936196690        0.5423767968        2.3737262177



