%chk=./calculation/no_transfer_pubchem_sampling_1_b3lyp/90613918.chk
%nprocshared=7
%mem=6GB
#p b3lyp/6-31g(d) opt SCF=XQC 

Gaussian input prepared by ASE

0 1
O                 0.7938721002        1.5563317912       -0.9256399375
S                 1.3813644476        0.4816789534       -0.1903078757
O                 0.9582352244       -0.8673304485       -0.4378210775
N                 1.3255548323        0.8143813201        1.4498773975
C                 0.8288436479       -0.2360819997        2.3091605285
C                -0.6553107712       -0.0220674724        2.6761134756
N                -1.3738818385        0.5109367813        1.5591073853
N                -1.3902289162        1.8437642483        1.3905182113
C                -1.9803383000        2.0596018889        0.2300001362
C                -2.3412486297        0.8512550989       -0.3791923497
C                -1.9249115050       -0.1256573773        0.5013121662
C                -2.0474277059       -1.5910855864        0.2999045008
C                -3.0294355773       -1.8352347880       -0.8504303945
C                -2.7059305652       -0.9200760501       -2.0326497055
C                -2.9941773907        0.5416749963       -1.6820374151
C                 3.1304046842        0.5330962949       -0.4476344615
C                 3.9841849741       -0.5112125813       -0.6210584452
C                 5.3242194778       -0.0895167872       -0.7590819785
C                 5.4491785063        1.2623840326       -0.6813116688
S                 3.9360237263        2.0470008039       -0.4441467226
H                 0.8502269696        1.6981684927        1.5998884914
H                 1.4359188580       -0.2759368964        3.2189880098
H                 0.9533233263       -1.1672723648        1.7534653274
H                -0.7288322159        0.7179304403        3.4778617266
H                -1.1044007621       -0.9627269887        3.0018335801
H                -2.1180442622        3.0605315969       -0.1265138937
H                -2.3870154038       -2.0916980031        1.2118459366
H                -1.0635998434       -1.9903190480        0.0349033941
H                -4.0483492400       -1.6348162260       -0.5091112341
H                -2.9765563041       -2.8807364619       -1.1595036433
H                -1.6465045901       -1.0229101816       -2.2759592840
H                -3.2916414102       -1.2157969335       -2.9054664938
H                -4.0757247172        0.7028789933       -1.6074755973
H                -2.6113863772        1.2052223869       -2.4598375021
H                 3.6494001188       -1.5311201316       -0.6556900713
H                 6.1491863962       -0.7616462947       -0.9098257257
H                 6.3450100361        1.8464025012       -0.7534337902



