%chk=./calculation/no_transfer_pubchem_sampling_1_b3lyp/91535516.chk
%nprocshared=7
%mem=6GB
#p b3lyp/6-31g(d) opt SCF=XQC 

Gaussian input prepared by ASE

0 1
C                 8.6279857929        2.7317111042       -0.5491303381
C                 7.6378187118        3.3631860545        0.4228307696
C                 6.3258442649        3.7866005490       -0.2400691832
C                 5.5107754029        2.6191775494       -0.7922562294
O                 5.0971790552        1.7414870168        0.2587870123
C                 5.6603172650        0.5456264810        0.3026827128
O                 6.4980793721        0.1129515518       -0.4371562589
O                 5.1510753318       -0.1163731722        1.3521807314
C                 5.5201484720       -1.4936139294        1.4640646911
C                 5.2036936612       -1.9325624992        2.8848103537
C                 4.7320191137       -2.3050224154        0.4210907210
O                 3.3401896587       -2.0397933943        0.5622071255
C                 2.8344269874       -1.0411335284       -0.1678753281
O                 3.4334429726       -0.4381516305       -1.0200852069
C                 1.3749779025       -0.7635722677        0.1917559970
N                 0.9407580424        0.5340058145       -0.2758025406
C                 0.5018413694       -1.8756675811       -0.4306220297
C                -0.9120590831       -1.7540648714        0.0551423856
C                -1.3396629370       -2.4566478862        1.1726771402
C                -2.6334654610       -2.3148261726        1.6391792007
C                -3.5138864213       -1.4650048100        0.9925058946
O                -4.7898048886       -1.3009407144        1.5162493347
C                -5.8639316500       -1.5066114623        0.7329506569
O                -5.8173212507       -1.9541258308       -0.3798787724
C                -7.1236885345       -1.0795041800        1.4603877635
C                -8.3010790916       -1.9542191734        1.0442126313
C                -7.3733472262        0.3918206818        1.1119543008
C                -3.0908496306       -0.7447781958       -0.1296934632
O                -4.0115949097        0.1236746254       -0.6867153520
C                -4.0691024137        0.3642845989       -2.0116006418
O                -3.2916406978       -0.0507357633       -2.8239434270
C                -5.2922517329        1.2040774714       -2.3223094806
C                -4.9435896451        2.2888720558       -3.3371608327
C                -6.3554650440        0.2475753234       -2.8729658543
C                -1.7913348679       -0.8919333641       -0.5856484911
H                 8.2663981116        1.7695827287       -0.9014433262
H                 8.7897217075        3.3821350121       -1.4062751813
H                 9.5837354858        2.5707065280       -0.0557109884
H                 8.0903619655        4.2498534307        0.8733350563
H                 7.4213869590        2.6596656627        1.2298646643
H                 6.5350555462        4.4654312787       -1.0688969428
H                 5.7131233411        4.3177178715        0.4911687263
H                 6.0819958070        2.0468509854       -1.5268574246
H                 4.5905268292        2.9855289314       -1.2548262370
H                 6.5906401809       -1.5936148140        1.2423824702
H                 5.6994159382       -1.2751383549        3.5930845516
H                 5.5469501296       -2.9509823466        3.0399954601
H                 4.1312433513       -1.8837699600        3.0514377602
H                 4.8706392449       -3.3740176900        0.5853681984
H                 5.0562925185       -2.0257419527       -0.5865317535
H                 1.2724473460       -0.8020062498        1.2811945162
H                 1.4489792148        1.2675006939        0.2068782105
H                 1.1591664010        0.6221673470       -1.2645428398
H                 0.9176439921       -2.8433527038       -0.1478792934
H                 0.5357675275       -1.7748735982       -1.5162585559
H                -0.6612457657       -3.1251884358        1.6812488327
H                -2.9781849882       -2.8586650659        2.5047258710
H                -6.9397701463       -1.1655813311        2.5349119481
H                -9.2188875866       -1.5917066451        1.5002020125
H                -8.4117813650       -1.9349970878       -0.0371502291
H                -8.1408764836       -2.9847097107        1.3519198224
H                -6.5110411335        0.9990551231        1.3779787691
H                -8.2403407013        0.7594310185        1.6559316856
H                -7.5612899952        0.4953793354        0.0458474114
H                -5.6482402453        1.6514075336       -1.3901289528
H                -4.2409343189        3.0024023166       -2.9126053648
H                -5.8416908274        2.8213514680       -3.6402913832
H                -4.4878475446        1.8364404389       -4.2143355485
H                -6.5242961437       -0.5740452674       -2.1802854044
H                -7.2909281296        0.7789244894       -3.0337469829
H                -6.0199150937       -0.1683914134       -3.8198522823
H                -1.4607210203       -0.3305146017       -1.4421982687



