%chk=calculation/no_transfer_pubchem_sampling_1_b3lyp/91535516_rwf.chk
%rwf=calculation/no_transfer_pubchem_sampling_1_b3lyp/91535516_rwf.rwf
%nprocshared=14
%mem=3GB
#p b3lyp/6-31g(d) 6D 10F nosymm GFInput td=(50-50,nstate=2) SCF=XQC 

Gaussian input prepared by ASE

0 1
C                 9.6188761908        2.3853480768       -0.1196328438
C                 8.5631632066        3.2896715902        0.5281067469
C                 7.4419680254        3.7444925278       -0.4202731794
C                 6.5824806739        2.6248580627       -0.9978262117
O                 5.8616834560        1.9531867953        0.0658657119
C                 6.0959729923        0.6488686332        0.2376131375
O                 6.8835374288       -0.0413099924       -0.3760815296
O                 5.3059007721        0.2265414877        1.2434608864
C                 5.3626705945       -1.1892113801        1.5452146354
C                 4.8907273718       -1.3373071180        2.9842875495
C                 4.5232239402       -1.9653423037        0.5317548273
O                 3.1317049232       -1.5937879271        0.6218368697
C                 2.6594869336       -0.7123159083       -0.2926994413
O                 3.3144884319       -0.2422208284       -1.1975555233
C                 1.1722682431       -0.4159416360       -0.0629676896
N                 0.7373094409        0.7962445563       -0.7459975759
C                 0.3307645701       -1.6392968493       -0.5258702899
C                -1.1003666415       -1.6100035367       -0.0350774204
C                -1.4953076235       -2.4190834977        1.0370439912
C                -2.8066772080       -2.3917244829        1.5090764061
C                -3.7410622827       -1.5590072370        0.9051910760
O                -5.0149595133       -1.4893580513        1.4648520157
C                -6.1114940994       -1.8287780082        0.7129115380
O                -6.0477171297       -2.2478175353       -0.4171384858
C                -7.3808132007       -1.5816664544        1.5135142191
C                -8.5636025040       -2.3399374013        0.9048287302
C                -7.6461917331       -0.0639259297        1.6042294399
C                -3.3604262407       -0.7435801010       -0.1664631963
O                -4.3261743880        0.1210270053       -0.6661262960
C                -4.5441364509        0.2096619392       -2.0234321927
O                -3.8728528994       -0.3473098578       -2.8553001631
C                -5.7394410927        1.1007068131       -2.3177432214
C                -5.3108888168        2.2547869887       -3.2393649453
C                -6.8453958161        0.2426642762       -2.9615443742
C                -2.0479412178       -0.7668495101       -0.6300028685
H                 9.1932213121        1.4267411167       -0.4340179610
H                10.0656082826        2.8645781639       -1.0002676121
H                10.4297619704        2.1699043730        0.5855069204
H                 9.0501866620        4.1877077553        0.9301250424
H                 8.1166606772        2.7776369972        1.3904801734
H                 7.8750417951        4.2880234129       -1.2726573291
H                 6.7868987305        4.4535095496        0.1020594794
H                 7.1693888101        1.8853483657       -1.5442530608
H                 5.8140071649        3.0304530248       -1.6628218460
H                 6.3990772320       -1.5247691492        1.4348264439
H                 5.5245785828       -0.7484586550        3.6534345046
H                 4.9435566169       -2.3876845099        3.2904128875
H                 3.8572319845       -0.9967143014        3.0899538401
H                 4.5643381737       -3.0341559922        0.7608135697
H                 4.8858804915       -1.7883357400       -0.4812654050
H                 1.0213511669       -0.2900686575        1.0146909400
H                 1.1296194199        1.6106605245       -0.2757412248
H                 1.1524305701        0.7992741479       -1.6785217665
H                 0.8173298542       -2.5525368414       -0.1675256962
H                 0.3592063655       -1.6689407614       -1.6227745873
H                -0.7730249979       -3.0806615726        1.5086846611
H                -3.1206156200       -3.0105267694        2.3436852552
H                -7.1884419596       -1.9480827442        2.5299811639
H                -9.4650355420       -2.1754326435        1.5049925092
H                -8.7609586906       -1.9996687694       -0.1164229384
H                -8.3697193633       -3.4163257202        0.8626309708
H                -6.7970467847        0.4622818778        2.0493382043
H                -8.5323470979        0.1237335714        2.2200638397
H                -7.8309930988        0.3578681720        0.6094597510
H                -6.1015783980        1.5065001696       -1.3674281736
H                -4.5566728680        2.8916373850       -2.7635690995
H                -6.1753839495        2.8801522173       -3.4877504120
H                -4.8880566245        1.8613367302       -4.1691738902
H                -7.1348428093       -0.5871028543       -2.3089017715
H                -7.7292064675        0.8583583919       -3.1625327370
H                -6.4934078992       -0.1793029627       -3.9084741331
H                -1.7588240296       -0.1192175080       -1.4453158453



