%chk=./calculation/no_transfer_pubchem_sampling_1_b3lyp/94797484.chk
%nprocshared=7
%mem=6GB
#p b3lyp/6-31g(d) opt SCF=XQC 

Gaussian input prepared by ASE

0 1
C                -5.0993781325        2.5599986344       -2.0426492466
C                -4.0417789007        1.8276377885       -2.8621197563
C                -4.0794734255        0.2952411517       -2.6811243201
C                -2.9891473121       -0.3491218105       -3.5411809431
O                -5.3567755490       -0.2058772005       -3.0357792504
C                -3.9047789541       -0.1233556331       -1.2048026759
N                -2.7607382088        0.4643532726       -0.5568629746
C                -1.6065620598       -0.2317215977       -0.3628640348
O                -1.4781840817       -1.3984521941       -0.6520559073
N                -0.6160874694        0.5462654266        0.2208465833
C                 0.6746775342        0.1752763074        0.5737710490
C                 1.2067264121       -1.0813279699        0.2811350706
C                 2.5050901907       -1.3787689014        0.6504653920
C                 3.2710572231       -0.4350692092        1.3079350346
S                 4.9436534650       -0.7979649011        1.8093752545
O                 5.3333116279       -2.0842204033        1.2992627296
O                 5.7791150725        0.3286409351        1.5107524228
N                 4.7539250436       -0.8472005130        3.4945072567
C                 4.0386938400       -2.0352454755        3.8980468868
C                 5.9963191643       -0.6365670843        4.2054458860
C                 2.7593893377        0.8146762536        1.6028220165
C                 1.4651830847        1.1207326671        1.2363854312
H                -5.1551778092        3.6025871282       -2.3471471378
H                -4.8767994471        2.5281406255       -0.9788225151
H                -6.0711982026        2.0989391736       -2.2013594924
H                -4.2121220923        2.0402772397       -3.9213173323
H                -3.0431349789        2.1933027294       -2.6163682794
H                -2.0036623720       -0.0706508651       -3.1793576328
H                -3.0765342381       -1.4315033906       -3.4929998054
H                -3.0812230595       -0.0334725267       -4.5795915543
H                -5.4720834243       -0.1040256240       -3.9871672823
H                -3.7756395458       -1.2063460540       -1.1678263583
H                -4.8158585894        0.1380564210       -0.6625344847
H                -2.7980924928        1.4520288008       -0.3670702643
H                -0.8624683098        1.4932066930        0.4724400351
H                 0.5962145010       -1.8073414564       -0.2286597147
H                 2.9431263941       -2.3391566679        0.4287623310
H                 3.1013232209       -2.0734603932        3.3461891204
H                 4.6117118098       -2.9454617892        3.6870464381
H                 3.8253536862       -1.9785723905        4.9649977664
H                 6.6389463512       -1.5242919991        4.1845959810
H                 6.5113282851        0.1877098971        3.7185489185
H                 5.7759266950       -0.3732725727        5.2403807475
H                 3.3888909300        1.5288819647        2.1077359621
H                 1.0569337863        2.0964965127        1.4598516491



