%chk=calculation/no_transfer_pubchem_sampling_1_b3lyp/98008575_rwf.chk
%rwf=calculation/no_transfer_pubchem_sampling_1_b3lyp/98008575_rwf.rwf
%nprocshared=14
%mem=3GB
#p b3lyp/6-31g(d) 6D 10F nosymm GFInput td=(50-50,nstate=2) SCF=XQC 

Gaussian input prepared by ASE

0 1
C                 5.9167634962        0.9751375671        0.6071125975
C                 4.8651541103        1.4303837532       -0.4224274174
C                 5.4692251747        1.4938375264       -1.8381306592
C                 3.6150798594        0.5620151135       -0.3777688196
C                 2.3723265625        1.1095445982       -0.0400905599
C                 1.2169257492        0.3276440880        0.0015959289
C                 1.2642831294       -1.0405884086       -0.2963613244
C                 0.0365050670       -1.9388192966       -0.2536647920
C                -1.2868639728       -1.2331900180       -0.6135907062
N                -1.8017178658       -0.7649299890        0.6790314678
C                -2.9250271353       -0.0115641317        0.8600029192
O                -3.3639364168        0.2942766061        1.9596721019
O                -3.4546887090        0.3330355084       -0.3427904511
C                -4.6609993412        1.1702023986       -0.4237975679
C                -4.8730003545        1.3016185156       -1.9345396068
C                -4.3939490911        2.5408343090        0.2079222132
C                -5.8457935204        0.4503001501        0.2296514439
C                -1.1026716198       -1.3498741315        1.8269299365
C                -0.3002210088       -2.4855056657        1.1780509168
C                 0.9116730241       -3.0150078776        1.9130364017
O                 1.5624720214       -3.9673781593        1.5403642365
O                 1.2065971405       -2.3255188062        3.0385351470
C                 2.5089950758       -1.5922574686       -0.6355636201
C                 3.6595089718       -0.8078816491       -0.6747146704
H                 6.7827791754        1.6477137566        0.5982030319
H                 6.2788608697       -0.0360255548        0.3860463047
H                 5.5012654708        0.9667765087        1.6206939892
H                 4.5587369260        2.4496859499       -0.1500898105
H                 4.7343872944        1.8529894892       -2.5668343639
H                 5.8125415960        0.5064552531       -2.1691543789
H                 6.3318650183        2.1704493304       -1.8602391099
H                 2.3031357051        2.1698199638        0.1941762739
H                 0.2721660807        0.7951477149        0.2648941226
H                 0.2103212551       -2.7855104452       -0.9234500999
H                -1.9900934421       -1.9362187587       -1.0802403328
H                -1.1417418277       -0.4004926408       -1.3060197673
H                -5.0176465753        0.3173029461       -2.3918127778
H                -4.0073898536        1.7774968550       -2.4069602799
H                -5.7587445427        1.9122908042       -2.1389337583
H                -5.2567242334        3.1964492237        0.0439042670
H                -3.5188950576        3.0091120250       -0.2565991998
H                -4.2189309782        2.4494513352        1.2808674646
H                -6.7630441026        1.0276549543        0.0669661668
H                -5.6878350511        0.3327669320        1.3026428672
H                -5.9836416513       -0.5394455132       -0.2199875158
H                -1.8187073469       -1.7003845650        2.5743844295
H                -0.4484695101       -0.6159861463        2.3094358142
H                -0.9571766965       -3.3527309476        1.0345133209
H                 2.0062435101       -2.7450649803        3.4099556590
H                 2.5761399454       -2.6526977222       -0.8647405944
H                 4.6039576754       -1.2733223004       -0.9463828378



